
---------- Begin Simulation Statistics ----------
simSeconds                                   0.268417                       # Number of seconds simulated (Second)
simTicks                                 268416708000                       # Number of ticks simulated (Tick)
finalTick                                268416708000                       # Number of ticks from beginning of simulation (restored from checkpoints and never reset) (Tick)
simFreq                                  1000000000000                       # The number of ticks per simulated second ((Tick/Second))
hostSeconds                                    177.60                       # Real time elapsed on the host (Second)
hostTickRate                               1511317652                       # The number of ticks simulated per host second (ticks/s) ((Tick/Second))
hostMemory                                     810036                       # Number of bytes of host memory used (Byte)
simInsts                                     71810732                       # Number of instructions simulated (Count)
simOps                                      120464924                       # Number of ops (including micro ops) simulated (Count)
hostInstRate                                   404329                       # Simulator instruction rate (inst/s) ((Count/Second))
hostOpRate                                     678276                       # Simulator op (including micro ops) rate (op/s) ((Count/Second))
system.caches.m_outstandReqHistSeqr::bucket_size            1                       (Unspecified)
system.caches.m_outstandReqHistSeqr::max_bucket            9                       (Unspecified)
system.caches.m_outstandReqHistSeqr::samples    133549145                       (Unspecified)
system.caches.m_outstandReqHistSeqr::mean     1.000004                       (Unspecified)
system.caches.m_outstandReqHistSeqr::gmean     1.000003                       (Unspecified)
system.caches.m_outstandReqHistSeqr::stdev     0.001969                       (Unspecified)
system.caches.m_outstandReqHistSeqr      |           0      0.00%      0.00% |   133548627    100.00%    100.00% |         518      0.00%    100.00% |           0      0.00%    100.00% |           0      0.00%    100.00% |           0      0.00%    100.00% |           0      0.00%    100.00% |           0      0.00%    100.00% |           0      0.00%    100.00% |           0      0.00%    100.00% (Unspecified)
system.caches.m_outstandReqHistSeqr::total    133549145                       (Unspecified)
system.caches.m_latencyHistSeqr::bucket_size           64                       (Unspecified)
system.caches.m_latencyHistSeqr::max_bucket          639                       (Unspecified)
system.caches.m_latencyHistSeqr::samples    133549145                       (Unspecified)
system.caches.m_latencyHistSeqr::mean        1.009893                       (Unspecified)
system.caches.m_latencyHistSeqr::gmean       1.000596                       (Unspecified)
system.caches.m_latencyHistSeqr::stdev       0.917799                       (Unspecified)
system.caches.m_latencyHistSeqr          |   133541713     99.99%     99.99% |        6848      0.01%    100.00% |         261      0.00%    100.00% |          95      0.00%    100.00% |         162      0.00%    100.00% |          62      0.00%    100.00% |           1      0.00%    100.00% |           3      0.00%    100.00% |           0      0.00%    100.00% |           0      0.00%    100.00% (Unspecified)
system.caches.m_latencyHistSeqr::total      133549145                       (Unspecified)
system.caches.m_hitLatencyHistSeqr::bucket_size            1                       (Unspecified)
system.caches.m_hitLatencyHistSeqr::max_bucket            9                       (Unspecified)
system.caches.m_hitLatencyHistSeqr::samples    133530202                       (Unspecified)
system.caches.m_hitLatencyHistSeqr::mean            1                       (Unspecified)
system.caches.m_hitLatencyHistSeqr::gmean            1                       (Unspecified)
system.caches.m_hitLatencyHistSeqr       |           0      0.00%      0.00% |   133530202    100.00%    100.00% |           0      0.00%    100.00% |           0      0.00%    100.00% |           0      0.00%    100.00% |           0      0.00%    100.00% |           0      0.00%    100.00% |           0      0.00%    100.00% |           0      0.00%    100.00% |           0      0.00%    100.00% (Unspecified)
system.caches.m_hitLatencyHistSeqr::total    133530202                       (Unspecified)
system.caches.m_missLatencyHistSeqr::bucket_size           64                       (Unspecified)
system.caches.m_missLatencyHistSeqr::max_bucket          639                       (Unspecified)
system.caches.m_missLatencyHistSeqr::samples        18943                       (Unspecified)
system.caches.m_missLatencyHistSeqr::mean    70.744391                       (Unspecified)
system.caches.m_missLatencyHistSeqr::gmean    66.910017                       (Unspecified)
system.caches.m_missLatencyHistSeqr::stdev    32.788845                       (Unspecified)
system.caches.m_missLatencyHistSeqr      |       11511     60.77%     60.77% |        6848     36.15%     96.92% |         261      1.38%     98.29% |          95      0.50%     98.80% |         162      0.86%     99.65% |          62      0.33%     99.98% |           1      0.01%     99.98% |           3      0.02%    100.00% |           0      0.00%    100.00% |           0      0.00%    100.00% (Unspecified)
system.caches.m_missLatencyHistSeqr::total        18943                       (Unspecified)
system.caches.L1Cache_Controller.Load    |    10598049      8.67%      8.67% |   111597212     91.33%    100.00% |           0      0.00%    100.00% |           0      0.00%    100.00% (Unspecified)
system.caches.L1Cache_Controller.Load::total    122195261                       (Unspecified)
system.caches.L1Cache_Controller.Store   |     1474733     12.99%     12.99% |     9879151     87.01%    100.00% |           0      0.00%    100.00% |           0      0.00%    100.00% (Unspecified)
system.caches.L1Cache_Controller.Store::total     11353884                       (Unspecified)
system.caches.L1Cache_Controller.Replacement |     2169916     38.23%     38.23% |     3505996     61.77%    100.00% |           0      0.00%    100.00% |           0      0.00%    100.00% (Unspecified)
system.caches.L1Cache_Controller.Replacement::total      5675912                       (Unspecified)
system.caches.L1Cache_Controller.FwdGetS |           9     75.00%     75.00% |           3     25.00%    100.00% |           0      0.00%    100.00% |           0      0.00%    100.00% (Unspecified)
system.caches.L1Cache_Controller.FwdGetS::total           12                       (Unspecified)
system.caches.L1Cache_Controller.FwdGetM |           7     70.00%     70.00% |           3     30.00%    100.00% |           0      0.00%    100.00% |           0      0.00%    100.00% (Unspecified)
system.caches.L1Cache_Controller.FwdGetM::total           10                       (Unspecified)
system.caches.L1Cache_Controller.Inv     |           7     58.33%     58.33% |           5     41.67%    100.00% |           0      0.00%    100.00% |           0      0.00%    100.00% (Unspecified)
system.caches.L1Cache_Controller.Inv::total           12                       (Unspecified)
system.caches.L1Cache_Controller.PutAck  |        6781     38.23%     38.23% |       10957     61.77%    100.00% |           0      0.00%    100.00% |           0      0.00%    100.00% (Unspecified)
system.caches.L1Cache_Controller.PutAck::total        17738                       (Unspecified)
system.caches.L1Cache_Controller.DataDirNoAcks |        7201     38.06%     38.06% |       11720     61.94%    100.00% |           0      0.00%    100.00% |           0      0.00%    100.00% (Unspecified)
system.caches.L1Cache_Controller.DataDirNoAcks::total        18921                       (Unspecified)
system.caches.L1Cache_Controller.DataOwner |           6     27.27%     27.27% |          16     72.73%    100.00% |           0      0.00%    100.00% |           0      0.00%    100.00% (Unspecified)
system.caches.L1Cache_Controller.DataOwner::total           22                       (Unspecified)
system.caches.L1Cache_Controller.InvAck  |           5     41.67%     41.67% |           7     58.33%    100.00% |           0      0.00%    100.00% |           0      0.00%    100.00% (Unspecified)
system.caches.L1Cache_Controller.InvAck::total           12                       (Unspecified)
system.caches.L1Cache_Controller.I.Load  |        5943     38.12%     38.12% |        9648     61.88%    100.00% |           0      0.00%    100.00% |           0      0.00%    100.00% (Unspecified)
system.caches.L1Cache_Controller.I.Load::total        15591                       (Unspecified)
system.caches.L1Cache_Controller.I.Store |        1108     41.44%     41.44% |        1566     58.56%    100.00% |           0      0.00%    100.00% |           0      0.00%    100.00% (Unspecified)
system.caches.L1Cache_Controller.I.Store::total         2674                       (Unspecified)
system.caches.L1Cache_Controller.IS_D.DataDirNoAcks |        5940     38.13%     38.13% |        9639     61.87%    100.00% |           0      0.00%    100.00% |           0      0.00%    100.00% (Unspecified)
system.caches.L1Cache_Controller.IS_D.DataDirNoAcks::total        15579                       (Unspecified)
system.caches.L1Cache_Controller.IS_D.DataOwner |           3     25.00%     25.00% |           9     75.00%    100.00% |           0      0.00%    100.00% |           0      0.00%    100.00% (Unspecified)
system.caches.L1Cache_Controller.IS_D.DataOwner::total           12                       (Unspecified)
system.caches.L1Cache_Controller.IM_AD.DataDirNoAcks |        1105     41.48%     41.48% |        1559     58.52%    100.00% |           0      0.00%    100.00% |           0      0.00%    100.00% (Unspecified)
system.caches.L1Cache_Controller.IM_AD.DataDirNoAcks::total         2664                       (Unspecified)
system.caches.L1Cache_Controller.IM_AD.DataOwner |           3     30.00%     30.00% |           7     70.00%    100.00% |           0      0.00%    100.00% |           0      0.00%    100.00% (Unspecified)
system.caches.L1Cache_Controller.IM_AD.DataOwner::total           10                       (Unspecified)
system.caches.L1Cache_Controller.S.Load  |     9463598      9.74%      9.74% |    87711671     90.26%    100.00% |           0      0.00%    100.00% |           0      0.00%    100.00% (Unspecified)
system.caches.L1Cache_Controller.S.Load::total     97175269                       (Unspecified)
system.caches.L1Cache_Controller.S.Store |         156     23.01%     23.01% |         522     76.99%    100.00% |           0      0.00%    100.00% |           0      0.00%    100.00% (Unspecified)
system.caches.L1Cache_Controller.S.Store::total          678                       (Unspecified)
system.caches.L1Cache_Controller.S.Replacement |        5577     38.51%     38.51% |        8904     61.49%    100.00% |           0      0.00%    100.00% |           0      0.00%    100.00% (Unspecified)
system.caches.L1Cache_Controller.S.Replacement::total        14481                       (Unspecified)
system.caches.L1Cache_Controller.S.Inv   |           7     58.33%     58.33% |           5     41.67%    100.00% |           0      0.00%    100.00% |           0      0.00%    100.00% (Unspecified)
system.caches.L1Cache_Controller.S.Inv::total           12                       (Unspecified)
system.caches.L1Cache_Controller.SM_AD.DataDirNoAcks |         156     23.01%     23.01% |         522     76.99%    100.00% |           0      0.00%    100.00% |           0      0.00%    100.00% (Unspecified)
system.caches.L1Cache_Controller.SM_AD.DataDirNoAcks::total          678                       (Unspecified)
system.caches.L1Cache_Controller.SM_AD.InvAck |           5     41.67%     41.67% |           7     58.33%    100.00% |           0      0.00%    100.00% |           0      0.00%    100.00% (Unspecified)
system.caches.L1Cache_Controller.SM_AD.InvAck::total           12                       (Unspecified)
system.caches.L1Cache_Controller.M.Load  |     1128508      4.51%      4.51% |    23875893     95.49%    100.00% |           0      0.00%    100.00% |           0      0.00%    100.00% (Unspecified)
system.caches.L1Cache_Controller.M.Load::total     25004401                       (Unspecified)
system.caches.L1Cache_Controller.M.Store |     1473469     12.98%     12.98% |     9877063     87.02%    100.00% |           0      0.00%    100.00% |           0      0.00%    100.00% (Unspecified)
system.caches.L1Cache_Controller.M.Store::total     11350532                       (Unspecified)
system.caches.L1Cache_Controller.M.Replacement |        1204     36.97%     36.97% |        2053     63.03%    100.00% |           0      0.00%    100.00% |           0      0.00%    100.00% (Unspecified)
system.caches.L1Cache_Controller.M.Replacement::total         3257                       (Unspecified)
system.caches.L1Cache_Controller.M.FwdGetS |           9     75.00%     75.00% |           3     25.00%    100.00% |           0      0.00%    100.00% |           0      0.00%    100.00% (Unspecified)
system.caches.L1Cache_Controller.M.FwdGetS::total           12                       (Unspecified)
system.caches.L1Cache_Controller.M.FwdGetM |           7     70.00%     70.00% |           3     30.00%    100.00% |           0      0.00%    100.00% |           0      0.00%    100.00% (Unspecified)
system.caches.L1Cache_Controller.M.FwdGetM::total           10                       (Unspecified)
system.caches.L1Cache_Controller.MI_A.Replacement |      384075     36.97%     36.97% |      654746     63.03%    100.00% |           0      0.00%    100.00% |           0      0.00%    100.00% (Unspecified)
system.caches.L1Cache_Controller.MI_A.Replacement::total      1038821                       (Unspecified)
system.caches.L1Cache_Controller.MI_A.PutAck |        1204     36.97%     36.97% |        2053     63.03%    100.00% |           0      0.00%    100.00% |           0      0.00%    100.00% (Unspecified)
system.caches.L1Cache_Controller.MI_A.PutAck::total         3257                       (Unspecified)
system.caches.L1Cache_Controller.SI_A.Replacement |     1779060     38.51%     38.51% |     2840293     61.49%    100.00% |           0      0.00%    100.00% |           0      0.00%    100.00% (Unspecified)
system.caches.L1Cache_Controller.SI_A.Replacement::total      4619353                       (Unspecified)
system.caches.L1Cache_Controller.SI_A.PutAck |        5577     38.51%     38.51% |        8904     61.49%    100.00% |           0      0.00%    100.00% |           0      0.00%    100.00% (Unspecified)
system.caches.L1Cache_Controller.SI_A.PutAck::total        14481                       (Unspecified)
system.caches.Directory_Controller.GetS         15591      0.00%      0.00% (Unspecified)
system.caches.Directory_Controller.GetM          3352      0.00%      0.00% (Unspecified)
system.caches.Directory_Controller.PutSNotLast          234      0.00%      0.00% (Unspecified)
system.caches.Directory_Controller.PutSLast        14247      0.00%      0.00% (Unspecified)
system.caches.Directory_Controller.PutMOwner         3257      0.00%      0.00% (Unspecified)
system.caches.Directory_Controller.Data            12      0.00%      0.00% (Unspecified)
system.caches.Directory_Controller.MemData        18921      0.00%      0.00% (Unspecified)
system.caches.Directory_Controller.MemAck         3269      0.00%      0.00% (Unspecified)
system.caches.Directory_Controller.I.GetS        15315      0.00%      0.00% (Unspecified)
system.caches.Directory_Controller.I.GetM         2664      0.00%      0.00% (Unspecified)
system.caches.Directory_Controller.S.GetS          264      0.00%      0.00% (Unspecified)
system.caches.Directory_Controller.S.GetM          678      0.00%      0.00% (Unspecified)
system.caches.Directory_Controller.S.PutSNotLast          234      0.00%      0.00% (Unspecified)
system.caches.Directory_Controller.S.PutSLast        14247      0.00%      0.00% (Unspecified)
system.caches.Directory_Controller.M.GetS           12      0.00%      0.00% (Unspecified)
system.caches.Directory_Controller.M.GetM           10      0.00%      0.00% (Unspecified)
system.caches.Directory_Controller.M.PutMOwner         3257      0.00%      0.00% (Unspecified)
system.caches.Directory_Controller.S_D.Data           12      0.00%      0.00% (Unspecified)
system.caches.Directory_Controller.S_m.MemData        15579      0.00%      0.00% (Unspecified)
system.caches.Directory_Controller.M_m.MemData         3342      0.00%      0.00% (Unspecified)
system.caches.Directory_Controller.MI_m.MemAck         3257      0.00%      0.00% (Unspecified)
system.caches.Directory_Controller.SS_m.MemAck           12      0.00%      0.00% (Unspecified)
system.caches.MachineType.L1Cache.miss_mach_latency_hist_seqr::bucket_size            4                       (Unspecified)
system.caches.MachineType.L1Cache.miss_mach_latency_hist_seqr::max_bucket           39                       (Unspecified)
system.caches.MachineType.L1Cache.miss_mach_latency_hist_seqr::samples           22                       (Unspecified)
system.caches.MachineType.L1Cache.miss_mach_latency_hist_seqr::mean    19.636364                       (Unspecified)
system.caches.MachineType.L1Cache.miss_mach_latency_hist_seqr::gmean    19.089473                       (Unspecified)
system.caches.MachineType.L1Cache.miss_mach_latency_hist_seqr::stdev     4.923660                       (Unspecified)
system.caches.MachineType.L1Cache.miss_mach_latency_hist_seqr |           0      0.00%      0.00% |           0      0.00%      0.00% |           0      0.00%      0.00% |           0      0.00%      0.00% |          14     63.64%     63.64% |           0      0.00%     63.64% |           8     36.36%    100.00% |           0      0.00%    100.00% |           0      0.00%    100.00% |           0      0.00%    100.00% (Unspecified)
system.caches.MachineType.L1Cache.miss_mach_latency_hist_seqr::total           22                       (Unspecified)
system.caches.MachineType.L1Cache.incomplete_times_seqr           22                       (Unspecified)
system.caches.MachineType.Directory.miss_mach_latency_hist_seqr::bucket_size           64                      
system.caches.MachineType.Directory.miss_mach_latency_hist_seqr::max_bucket          639                      
system.caches.MachineType.Directory.miss_mach_latency_hist_seqr::samples        18921                      
system.caches.MachineType.Directory.miss_mach_latency_hist_seqr::mean    70.803816                      
system.caches.MachineType.Directory.miss_mach_latency_hist_seqr::gmean    67.007664                      
system.caches.MachineType.Directory.miss_mach_latency_hist_seqr::stdev    32.761117                      
system.caches.MachineType.Directory.miss_mach_latency_hist_seqr |       11489     60.72%     60.72% |        6848     36.19%     96.91% |         261      1.38%     98.29% |          95      0.50%     98.79% |         162      0.86%     99.65% |          62      0.33%     99.98% |           1      0.01%     99.98% |           3      0.02%    100.00% |           0      0.00%    100.00% |           0      0.00%    100.00% (Unspecified)
system.caches.MachineType.Directory.miss_mach_latency_hist_seqr::total        18921                      
system.caches.MachineType.Directory.miss_latency_hist_seqr.issue_to_initial_request::bucket_size            1                      
system.caches.MachineType.Directory.miss_latency_hist_seqr.issue_to_initial_request::max_bucket            9                      
system.caches.MachineType.Directory.miss_latency_hist_seqr.issue_to_initial_request::samples            1                      
system.caches.MachineType.Directory.miss_latency_hist_seqr.issue_to_initial_request::stdev          nan                      
system.caches.MachineType.Directory.miss_latency_hist_seqr.issue_to_initial_request |           1    100.00%    100.00% |           0      0.00%    100.00% |           0      0.00%    100.00% |           0      0.00%    100.00% |           0      0.00%    100.00% |           0      0.00%    100.00% |           0      0.00%    100.00% |           0      0.00%    100.00% |           0      0.00%    100.00% |           0      0.00%    100.00% (Unspecified)
system.caches.MachineType.Directory.miss_latency_hist_seqr.issue_to_initial_request::total            1                      
system.caches.MachineType.Directory.miss_latency_hist_seqr.initial_to_forward::bucket_size            1                      
system.caches.MachineType.Directory.miss_latency_hist_seqr.initial_to_forward::max_bucket            9                      
system.caches.MachineType.Directory.miss_latency_hist_seqr.initial_to_forward::samples            1                      
system.caches.MachineType.Directory.miss_latency_hist_seqr.initial_to_forward::stdev          nan                      
system.caches.MachineType.Directory.miss_latency_hist_seqr.initial_to_forward |           1    100.00%    100.00% |           0      0.00%    100.00% |           0      0.00%    100.00% |           0      0.00%    100.00% |           0      0.00%    100.00% |           0      0.00%    100.00% |           0      0.00%    100.00% |           0      0.00%    100.00% |           0      0.00%    100.00% |           0      0.00%    100.00% (Unspecified)
system.caches.MachineType.Directory.miss_latency_hist_seqr.initial_to_forward::total            1                      
system.caches.MachineType.Directory.miss_latency_hist_seqr.forward_to_first_response::bucket_size            1                      
system.caches.MachineType.Directory.miss_latency_hist_seqr.forward_to_first_response::max_bucket            9                      
system.caches.MachineType.Directory.miss_latency_hist_seqr.forward_to_first_response::samples            1                      
system.caches.MachineType.Directory.miss_latency_hist_seqr.forward_to_first_response::stdev          nan                      
system.caches.MachineType.Directory.miss_latency_hist_seqr.forward_to_first_response |           1    100.00%    100.00% |           0      0.00%    100.00% |           0      0.00%    100.00% |           0      0.00%    100.00% |           0      0.00%    100.00% |           0      0.00%    100.00% |           0      0.00%    100.00% |           0      0.00%    100.00% |           0      0.00%    100.00% |           0      0.00%    100.00% (Unspecified)
system.caches.MachineType.Directory.miss_latency_hist_seqr.forward_to_first_response::total            1                      
system.caches.MachineType.Directory.miss_latency_hist_seqr.first_response_to_completion::bucket_size            8                      
system.caches.MachineType.Directory.miss_latency_hist_seqr.first_response_to_completion::max_bucket           79                      
system.caches.MachineType.Directory.miss_latency_hist_seqr.first_response_to_completion::samples            1                      
system.caches.MachineType.Directory.miss_latency_hist_seqr.first_response_to_completion::mean           73                      
system.caches.MachineType.Directory.miss_latency_hist_seqr.first_response_to_completion::gmean    73.000000                      
system.caches.MachineType.Directory.miss_latency_hist_seqr.first_response_to_completion::stdev          nan                      
system.caches.MachineType.Directory.miss_latency_hist_seqr.first_response_to_completion |           0      0.00%      0.00% |           0      0.00%      0.00% |           0      0.00%      0.00% |           0      0.00%      0.00% |           0      0.00%      0.00% |           0      0.00%      0.00% |           0      0.00%      0.00% |           0      0.00%      0.00% |           0      0.00%      0.00% |           1    100.00%    100.00% (Unspecified)
system.caches.MachineType.Directory.miss_latency_hist_seqr.first_response_to_completion::total            1                      
system.caches.MachineType.Directory.incomplete_times_seqr        18920                       (Unspecified)
system.caches.RequestType.LD.latency_hist_seqr::bucket_size           64                       (Unspecified)
system.caches.RequestType.LD.latency_hist_seqr::max_bucket          639                       (Unspecified)
system.caches.RequestType.LD.latency_hist_seqr::samples     26782741                       (Unspecified)
system.caches.RequestType.LD.latency_hist_seqr::mean     1.021360                       (Unspecified)
system.caches.RequestType.LD.latency_hist_seqr::gmean     1.001298                       (Unspecified)
system.caches.RequestType.LD.latency_hist_seqr::stdev     1.346454                       (Unspecified)
system.caches.RequestType.LD.latency_hist_seqr |    26779368     99.99%     99.99% |        3139      0.01%    100.00% |          91      0.00%    100.00% |          43      0.00%    100.00% |          72      0.00%    100.00% |          27      0.00%    100.00% |           0      0.00%    100.00% |           1      0.00%    100.00% |           0      0.00%    100.00% |           0      0.00%    100.00% (Unspecified)
system.caches.RequestType.LD.latency_hist_seqr::total     26782741                       (Unspecified)
system.caches.RequestType.LD.hit_latency_hist_seqr::bucket_size            1                       (Unspecified)
system.caches.RequestType.LD.hit_latency_hist_seqr::max_bucket            9                       (Unspecified)
system.caches.RequestType.LD.hit_latency_hist_seqr::samples     26774433                       (Unspecified)
system.caches.RequestType.LD.hit_latency_hist_seqr::mean            1                       (Unspecified)
system.caches.RequestType.LD.hit_latency_hist_seqr::gmean            1                       (Unspecified)
system.caches.RequestType.LD.hit_latency_hist_seqr |           0      0.00%      0.00% |    26774433    100.00%    100.00% |           0      0.00%    100.00% |           0      0.00%    100.00% |           0      0.00%    100.00% |           0      0.00%    100.00% |           0      0.00%    100.00% |           0      0.00%    100.00% |           0      0.00%    100.00% |           0      0.00%    100.00% (Unspecified)
system.caches.RequestType.LD.hit_latency_hist_seqr::total     26774433                       (Unspecified)
system.caches.RequestType.LD.miss_latency_hist_seqr::bucket_size           64                       (Unspecified)
system.caches.RequestType.LD.miss_latency_hist_seqr::max_bucket          639                       (Unspecified)
system.caches.RequestType.LD.miss_latency_hist_seqr::samples         8308                       (Unspecified)
system.caches.RequestType.LD.miss_latency_hist_seqr::mean    69.860376                       (Unspecified)
system.caches.RequestType.LD.miss_latency_hist_seqr::gmean    65.554285                       (Unspecified)
system.caches.RequestType.LD.miss_latency_hist_seqr::stdev    33.230597                       (Unspecified)
system.caches.RequestType.LD.miss_latency_hist_seqr |        4935     59.40%     59.40% |        3139     37.78%     97.18% |          91      1.10%     98.28% |          43      0.52%     98.80% |          72      0.87%     99.66% |          27      0.32%     99.99% |           0      0.00%     99.99% |           1      0.01%    100.00% |           0      0.00%    100.00% |           0      0.00%    100.00% (Unspecified)
system.caches.RequestType.LD.miss_latency_hist_seqr::total         8308                       (Unspecified)
system.caches.RequestType.ST.latency_hist_seqr::bucket_size           64                       (Unspecified)
system.caches.RequestType.ST.latency_hist_seqr::max_bucket          639                       (Unspecified)
system.caches.RequestType.ST.latency_hist_seqr::samples      9540630                       (Unspecified)
system.caches.RequestType.ST.latency_hist_seqr::mean     1.024348                       (Unspecified)
system.caches.RequestType.ST.latency_hist_seqr::gmean     1.001439                       (Unspecified)
system.caches.RequestType.ST.latency_hist_seqr::stdev     1.467330                       (Unspecified)
system.caches.RequestType.ST.latency_hist_seqr |     9538872     99.98%     99.98% |        1615      0.02%    100.00% |          84      0.00%    100.00% |          22      0.00%    100.00% |          29      0.00%    100.00% |           6      0.00%    100.00% |           0      0.00%    100.00% |           2      0.00%    100.00% |           0      0.00%    100.00% |           0      0.00%    100.00% (Unspecified)
system.caches.RequestType.ST.latency_hist_seqr::total      9540630                       (Unspecified)
system.caches.RequestType.ST.hit_latency_hist_seqr::bucket_size            1                       (Unspecified)
system.caches.RequestType.ST.hit_latency_hist_seqr::max_bucket            9                       (Unspecified)
system.caches.RequestType.ST.hit_latency_hist_seqr::samples      9537375                       (Unspecified)
system.caches.RequestType.ST.hit_latency_hist_seqr::mean            1                       (Unspecified)
system.caches.RequestType.ST.hit_latency_hist_seqr::gmean            1                       (Unspecified)
system.caches.RequestType.ST.hit_latency_hist_seqr |           0      0.00%      0.00% |     9537375    100.00%    100.00% |           0      0.00%    100.00% |           0      0.00%    100.00% |           0      0.00%    100.00% |           0      0.00%    100.00% |           0      0.00%    100.00% |           0      0.00%    100.00% |           0      0.00%    100.00% |           0      0.00%    100.00% (Unspecified)
system.caches.RequestType.ST.hit_latency_hist_seqr::total      9537375                       (Unspecified)
system.caches.RequestType.ST.miss_latency_hist_seqr::bucket_size           64                       (Unspecified)
system.caches.RequestType.ST.miss_latency_hist_seqr::max_bucket          639                       (Unspecified)
system.caches.RequestType.ST.miss_latency_hist_seqr::samples         3255                       (Unspecified)
system.caches.RequestType.ST.miss_latency_hist_seqr::mean    72.366820                       (Unspecified)
system.caches.RequestType.ST.miss_latency_hist_seqr::gmean    67.753307                       (Unspecified)
system.caches.RequestType.ST.miss_latency_hist_seqr::stdev    34.923527                       (Unspecified)
system.caches.RequestType.ST.miss_latency_hist_seqr |        1497     45.99%     45.99% |        1615     49.62%     95.61% |          84      2.58%     98.19% |          22      0.68%     98.86% |          29      0.89%     99.75% |           6      0.18%     99.94% |           0      0.00%     99.94% |           2      0.06%    100.00% |           0      0.00%    100.00% |           0      0.00%    100.00% (Unspecified)
system.caches.RequestType.ST.miss_latency_hist_seqr::total         3255                       (Unspecified)
system.caches.RequestType.IFETCH.latency_hist_seqr::bucket_size           64                       (Unspecified)
system.caches.RequestType.IFETCH.latency_hist_seqr::max_bucket          639                       (Unspecified)
system.caches.RequestType.IFETCH.latency_hist_seqr::samples     95412520                       (Unspecified)
system.caches.RequestType.IFETCH.latency_hist_seqr::mean     1.005356                       (Unspecified)
system.caches.RequestType.IFETCH.latency_hist_seqr::gmean     1.000322                       (Unspecified)
system.caches.RequestType.IFETCH.latency_hist_seqr::stdev     0.670588                       (Unspecified)
system.caches.RequestType.IFETCH.latency_hist_seqr |    95410243    100.00%    100.00% |        2072      0.00%    100.00% |          86      0.00%    100.00% |          30      0.00%    100.00% |          59      0.00%    100.00% |          29      0.00%    100.00% |           1      0.00%    100.00% |           0      0.00%    100.00% |           0      0.00%    100.00% |           0      0.00%    100.00% (Unspecified)
system.caches.RequestType.IFETCH.latency_hist_seqr::total     95412520                       (Unspecified)
system.caches.RequestType.IFETCH.hit_latency_hist_seqr::bucket_size            1                       (Unspecified)
system.caches.RequestType.IFETCH.hit_latency_hist_seqr::max_bucket            9                       (Unspecified)
system.caches.RequestType.IFETCH.hit_latency_hist_seqr::samples     95405237                       (Unspecified)
system.caches.RequestType.IFETCH.hit_latency_hist_seqr::mean            1                       (Unspecified)
system.caches.RequestType.IFETCH.hit_latency_hist_seqr::gmean            1                       (Unspecified)
system.caches.RequestType.IFETCH.hit_latency_hist_seqr |           0      0.00%      0.00% |    95405237    100.00%    100.00% |           0      0.00%    100.00% |           0      0.00%    100.00% |           0      0.00%    100.00% |           0      0.00%    100.00% |           0      0.00%    100.00% |           0      0.00%    100.00% |           0      0.00%    100.00% |           0      0.00%    100.00% (Unspecified)
system.caches.RequestType.IFETCH.hit_latency_hist_seqr::total     95405237                       (Unspecified)
system.caches.RequestType.IFETCH.miss_latency_hist_seqr::bucket_size           64                       (Unspecified)
system.caches.RequestType.IFETCH.miss_latency_hist_seqr::max_bucket          639                       (Unspecified)
system.caches.RequestType.IFETCH.miss_latency_hist_seqr::samples         7283                       (Unspecified)
system.caches.RequestType.IFETCH.miss_latency_hist_seqr::mean    71.170122                       (Unspecified)
system.caches.RequestType.IFETCH.miss_latency_hist_seqr::gmean    68.310359                       (Unspecified)
system.caches.RequestType.IFETCH.miss_latency_hist_seqr::stdev    31.111225                       (Unspecified)
system.caches.RequestType.IFETCH.miss_latency_hist_seqr |        5006     68.74%     68.74% |        2072     28.45%     97.19% |          86      1.18%     98.37% |          30      0.41%     98.78% |          59      0.81%     99.59% |          29      0.40%     99.99% |           1      0.01%    100.00% |           0      0.00%    100.00% |           0      0.00%    100.00% |           0      0.00%    100.00% (Unspecified)
system.caches.RequestType.IFETCH.miss_latency_hist_seqr::total         7283                       (Unspecified)
system.caches.RequestType.RMW_Read.latency_hist_seqr::bucket_size           32                       (Unspecified)
system.caches.RequestType.RMW_Read.latency_hist_seqr::max_bucket          319                       (Unspecified)
system.caches.RequestType.RMW_Read.latency_hist_seqr::samples      1681958                       (Unspecified)
system.caches.RequestType.RMW_Read.latency_hist_seqr::mean     1.002222                       (Unspecified)
system.caches.RequestType.RMW_Read.latency_hist_seqr::gmean     1.000152                       (Unspecified)
system.caches.RequestType.RMW_Read.latency_hist_seqr::stdev     0.412015                       (Unspecified)
system.caches.RequestType.RMW_Read.latency_hist_seqr |     1681898    100.00%    100.00% |          48      0.00%    100.00% |          11      0.00%    100.00% |           0      0.00%    100.00% |           0      0.00%    100.00% |           0      0.00%    100.00% |           0      0.00%    100.00% |           0      0.00%    100.00% |           1      0.00%    100.00% |           0      0.00%    100.00% (Unspecified)
system.caches.RequestType.RMW_Read.latency_hist_seqr::total      1681958                       (Unspecified)
system.caches.RequestType.RMW_Read.hit_latency_hist_seqr::bucket_size            1                       (Unspecified)
system.caches.RequestType.RMW_Read.hit_latency_hist_seqr::max_bucket            9                       (Unspecified)
system.caches.RequestType.RMW_Read.hit_latency_hist_seqr::samples      1681894                       (Unspecified)
system.caches.RequestType.RMW_Read.hit_latency_hist_seqr::mean            1                       (Unspecified)
system.caches.RequestType.RMW_Read.hit_latency_hist_seqr::gmean            1                       (Unspecified)
system.caches.RequestType.RMW_Read.hit_latency_hist_seqr |           0      0.00%      0.00% |     1681894    100.00%    100.00% |           0      0.00%    100.00% |           0      0.00%    100.00% |           0      0.00%    100.00% |           0      0.00%    100.00% |           0      0.00%    100.00% |           0      0.00%    100.00% |           0      0.00%    100.00% |           0      0.00%    100.00% (Unspecified)
system.caches.RequestType.RMW_Read.hit_latency_hist_seqr::total      1681894                       (Unspecified)
system.caches.RequestType.RMW_Read.miss_latency_hist_seqr::bucket_size           32                       (Unspecified)
system.caches.RequestType.RMW_Read.miss_latency_hist_seqr::max_bucket          319                       (Unspecified)
system.caches.RequestType.RMW_Read.miss_latency_hist_seqr::samples           64                       (Unspecified)
system.caches.RequestType.RMW_Read.miss_latency_hist_seqr::mean    59.390625                       (Unspecified)
system.caches.RequestType.RMW_Read.miss_latency_hist_seqr::gmean    54.573762                       (Unspecified)
system.caches.RequestType.RMW_Read.miss_latency_hist_seqr::stdev    32.690282                       (Unspecified)
system.caches.RequestType.RMW_Read.miss_latency_hist_seqr |           4      6.25%      6.25% |          48     75.00%     81.25% |          11     17.19%     98.44% |           0      0.00%     98.44% |           0      0.00%     98.44% |           0      0.00%     98.44% |           0      0.00%     98.44% |           0      0.00%     98.44% |           1      1.56%    100.00% |           0      0.00%    100.00% (Unspecified)
system.caches.RequestType.RMW_Read.miss_latency_hist_seqr::total           64                       (Unspecified)
system.caches.RequestType.Locked_RMW_Read.latency_hist_seqr::bucket_size           32                       (Unspecified)
system.caches.RequestType.Locked_RMW_Read.latency_hist_seqr::max_bucket          319                       (Unspecified)
system.caches.RequestType.Locked_RMW_Read.latency_hist_seqr::samples        65648                       (Unspecified)
system.caches.RequestType.Locked_RMW_Read.latency_hist_seqr::mean     1.030328                       (Unspecified)
system.caches.RequestType.Locked_RMW_Read.latency_hist_seqr::gmean     1.001985                       (Unspecified)
system.caches.RequestType.Locked_RMW_Read.latency_hist_seqr::stdev     1.743864                       (Unspecified)
system.caches.RequestType.Locked_RMW_Read.latency_hist_seqr |       65621     99.96%     99.96% |          15      0.02%     99.98% |          11      0.02%    100.00% |           0      0.00%    100.00% |           0      0.00%    100.00% |           0      0.00%    100.00% |           0      0.00%    100.00% |           0      0.00%    100.00% |           0      0.00%    100.00% |           1      0.00%    100.00% (Unspecified)
system.caches.RequestType.Locked_RMW_Read.latency_hist_seqr::total        65648                       (Unspecified)
system.caches.RequestType.Locked_RMW_Read.hit_latency_hist_seqr::bucket_size            1                       (Unspecified)
system.caches.RequestType.Locked_RMW_Read.hit_latency_hist_seqr::max_bucket            9                       (Unspecified)
system.caches.RequestType.Locked_RMW_Read.hit_latency_hist_seqr::samples        65615                       (Unspecified)
system.caches.RequestType.Locked_RMW_Read.hit_latency_hist_seqr::mean            1                       (Unspecified)
system.caches.RequestType.Locked_RMW_Read.hit_latency_hist_seqr::gmean            1                       (Unspecified)
system.caches.RequestType.Locked_RMW_Read.hit_latency_hist_seqr |           0      0.00%      0.00% |       65615    100.00%    100.00% |           0      0.00%    100.00% |           0      0.00%    100.00% |           0      0.00%    100.00% |           0      0.00%    100.00% |           0      0.00%    100.00% |           0      0.00%    100.00% |           0      0.00%    100.00% |           0      0.00%    100.00% (Unspecified)
system.caches.RequestType.Locked_RMW_Read.hit_latency_hist_seqr::total        65615                       (Unspecified)
system.caches.RequestType.Locked_RMW_Read.miss_latency_hist_seqr::bucket_size           32                       (Unspecified)
system.caches.RequestType.Locked_RMW_Read.miss_latency_hist_seqr::max_bucket          319                       (Unspecified)
system.caches.RequestType.Locked_RMW_Read.miss_latency_hist_seqr::samples           33                       (Unspecified)
system.caches.RequestType.Locked_RMW_Read.miss_latency_hist_seqr::mean    61.333333                       (Unspecified)
system.caches.RequestType.Locked_RMW_Read.miss_latency_hist_seqr::gmean    51.701034                       (Unspecified)
system.caches.RequestType.Locked_RMW_Read.miss_latency_hist_seqr::stdev    49.866488                       (Unspecified)
system.caches.RequestType.Locked_RMW_Read.miss_latency_hist_seqr |           6     18.18%     18.18% |          15     45.45%     63.64% |          11     33.33%     96.97% |           0      0.00%     96.97% |           0      0.00%     96.97% |           0      0.00%     96.97% |           0      0.00%     96.97% |           0      0.00%     96.97% |           0      0.00%     96.97% |           1      3.03%    100.00% (Unspecified)
system.caches.RequestType.Locked_RMW_Read.miss_latency_hist_seqr::total           33                       (Unspecified)
system.caches.RequestType.Locked_RMW_Write.latency_hist_seqr::bucket_size            1                       (Unspecified)
system.caches.RequestType.Locked_RMW_Write.latency_hist_seqr::max_bucket            9                       (Unspecified)
system.caches.RequestType.Locked_RMW_Write.latency_hist_seqr::samples        65648                       (Unspecified)
system.caches.RequestType.Locked_RMW_Write.latency_hist_seqr::mean            1                       (Unspecified)
system.caches.RequestType.Locked_RMW_Write.latency_hist_seqr::gmean            1                       (Unspecified)
system.caches.RequestType.Locked_RMW_Write.latency_hist_seqr |           0      0.00%      0.00% |       65648    100.00%    100.00% |           0      0.00%    100.00% |           0      0.00%    100.00% |           0      0.00%    100.00% |           0      0.00%    100.00% |           0      0.00%    100.00% |           0      0.00%    100.00% |           0      0.00%    100.00% |           0      0.00%    100.00% (Unspecified)
system.caches.RequestType.Locked_RMW_Write.latency_hist_seqr::total        65648                       (Unspecified)
system.caches.RequestType.Locked_RMW_Write.hit_latency_hist_seqr::bucket_size            1                       (Unspecified)
system.caches.RequestType.Locked_RMW_Write.hit_latency_hist_seqr::max_bucket            9                       (Unspecified)
system.caches.RequestType.Locked_RMW_Write.hit_latency_hist_seqr::samples        65648                       (Unspecified)
system.caches.RequestType.Locked_RMW_Write.hit_latency_hist_seqr::mean            1                       (Unspecified)
system.caches.RequestType.Locked_RMW_Write.hit_latency_hist_seqr::gmean            1                       (Unspecified)
system.caches.RequestType.Locked_RMW_Write.hit_latency_hist_seqr |           0      0.00%      0.00% |       65648    100.00%    100.00% |           0      0.00%    100.00% |           0      0.00%    100.00% |           0      0.00%    100.00% |           0      0.00%    100.00% |           0      0.00%    100.00% |           0      0.00%    100.00% |           0      0.00%    100.00% |           0      0.00%    100.00% (Unspecified)
system.caches.RequestType.Locked_RMW_Write.hit_latency_hist_seqr::total        65648                       (Unspecified)
system.caches.RequestTypeMachineType.LD.L1Cache.miss_type_mach_latency_hist_seqr::bucket_size            4                       (Unspecified)
system.caches.RequestTypeMachineType.LD.L1Cache.miss_type_mach_latency_hist_seqr::max_bucket           39                       (Unspecified)
system.caches.RequestTypeMachineType.LD.L1Cache.miss_type_mach_latency_hist_seqr::samples           12                       (Unspecified)
system.caches.RequestTypeMachineType.LD.L1Cache.miss_type_mach_latency_hist_seqr::mean           21                       (Unspecified)
system.caches.RequestTypeMachineType.LD.L1Cache.miss_type_mach_latency_hist_seqr::gmean    20.396078                       (Unspecified)
system.caches.RequestTypeMachineType.LD.L1Cache.miss_type_mach_latency_hist_seqr::stdev     5.222330                       (Unspecified)
system.caches.RequestTypeMachineType.LD.L1Cache.miss_type_mach_latency_hist_seqr |           0      0.00%      0.00% |           0      0.00%      0.00% |           0      0.00%      0.00% |           0      0.00%      0.00% |           6     50.00%     50.00% |           0      0.00%     50.00% |           6     50.00%    100.00% |           0      0.00%    100.00% |           0      0.00%    100.00% |           0      0.00%    100.00% (Unspecified)
system.caches.RequestTypeMachineType.LD.L1Cache.miss_type_mach_latency_hist_seqr::total           12                       (Unspecified)
system.caches.RequestTypeMachineType.LD.Directory.miss_type_mach_latency_hist_seqr::bucket_size           64                       (Unspecified)
system.caches.RequestTypeMachineType.LD.Directory.miss_type_mach_latency_hist_seqr::max_bucket          639                       (Unspecified)
system.caches.RequestTypeMachineType.LD.Directory.miss_type_mach_latency_hist_seqr::samples         8296                       (Unspecified)
system.caches.RequestTypeMachineType.LD.Directory.miss_type_mach_latency_hist_seqr::mean    69.931051                       (Unspecified)
system.caches.RequestTypeMachineType.LD.Directory.miss_type_mach_latency_hist_seqr::gmean    65.665088                       (Unspecified)
system.caches.RequestTypeMachineType.LD.Directory.miss_type_mach_latency_hist_seqr::stdev    33.202037                       (Unspecified)
system.caches.RequestTypeMachineType.LD.Directory.miss_type_mach_latency_hist_seqr |        4923     59.34%     59.34% |        3139     37.84%     97.18% |          91      1.10%     98.28% |          43      0.52%     98.79% |          72      0.87%     99.66% |          27      0.33%     99.99% |           0      0.00%     99.99% |           1      0.01%    100.00% |           0      0.00%    100.00% |           0      0.00%    100.00% (Unspecified)
system.caches.RequestTypeMachineType.LD.Directory.miss_type_mach_latency_hist_seqr::total         8296                       (Unspecified)
system.caches.RequestTypeMachineType.ST.L1Cache.miss_type_mach_latency_hist_seqr::bucket_size            4                       (Unspecified)
system.caches.RequestTypeMachineType.ST.L1Cache.miss_type_mach_latency_hist_seqr::max_bucket           39                       (Unspecified)
system.caches.RequestTypeMachineType.ST.L1Cache.miss_type_mach_latency_hist_seqr::samples            6                       (Unspecified)
system.caches.RequestTypeMachineType.ST.L1Cache.miss_type_mach_latency_hist_seqr::mean    17.666667                       (Unspecified)
system.caches.RequestTypeMachineType.ST.L1Cache.miss_type_mach_latency_hist_seqr::gmean    17.348511                       (Unspecified)
system.caches.RequestTypeMachineType.ST.L1Cache.miss_type_mach_latency_hist_seqr::stdev     4.082483                       (Unspecified)
system.caches.RequestTypeMachineType.ST.L1Cache.miss_type_mach_latency_hist_seqr |           0      0.00%      0.00% |           0      0.00%      0.00% |           0      0.00%      0.00% |           0      0.00%      0.00% |           5     83.33%     83.33% |           0      0.00%     83.33% |           1     16.67%    100.00% |           0      0.00%    100.00% |           0      0.00%    100.00% |           0      0.00%    100.00% (Unspecified)
system.caches.RequestTypeMachineType.ST.L1Cache.miss_type_mach_latency_hist_seqr::total            6                       (Unspecified)
system.caches.RequestTypeMachineType.ST.Directory.miss_type_mach_latency_hist_seqr::bucket_size           64                       (Unspecified)
system.caches.RequestTypeMachineType.ST.Directory.miss_type_mach_latency_hist_seqr::max_bucket          639                       (Unspecified)
system.caches.RequestTypeMachineType.ST.Directory.miss_type_mach_latency_hist_seqr::samples         3249                       (Unspecified)
system.caches.RequestTypeMachineType.ST.Directory.miss_type_mach_latency_hist_seqr::mean    72.467836                       (Unspecified)
system.caches.RequestTypeMachineType.ST.Directory.miss_type_mach_latency_hist_seqr::gmean    67.923983                       (Unspecified)
system.caches.RequestTypeMachineType.ST.Directory.miss_type_mach_latency_hist_seqr::stdev    34.876104                       (Unspecified)
system.caches.RequestTypeMachineType.ST.Directory.miss_type_mach_latency_hist_seqr |        1491     45.89%     45.89% |        1615     49.71%     95.60% |          84      2.59%     98.18% |          22      0.68%     98.86% |          29      0.89%     99.75% |           6      0.18%     99.94% |           0      0.00%     99.94% |           2      0.06%    100.00% |           0      0.00%    100.00% |           0      0.00%    100.00% (Unspecified)
system.caches.RequestTypeMachineType.ST.Directory.miss_type_mach_latency_hist_seqr::total         3249                       (Unspecified)
system.caches.RequestTypeMachineType.IFETCH.Directory.miss_type_mach_latency_hist_seqr::bucket_size           64                       (Unspecified)
system.caches.RequestTypeMachineType.IFETCH.Directory.miss_type_mach_latency_hist_seqr::max_bucket          639                       (Unspecified)
system.caches.RequestTypeMachineType.IFETCH.Directory.miss_type_mach_latency_hist_seqr::samples         7283                       (Unspecified)
system.caches.RequestTypeMachineType.IFETCH.Directory.miss_type_mach_latency_hist_seqr::mean    71.170122                       (Unspecified)
system.caches.RequestTypeMachineType.IFETCH.Directory.miss_type_mach_latency_hist_seqr::gmean    68.310359                       (Unspecified)
system.caches.RequestTypeMachineType.IFETCH.Directory.miss_type_mach_latency_hist_seqr::stdev    31.111225                       (Unspecified)
system.caches.RequestTypeMachineType.IFETCH.Directory.miss_type_mach_latency_hist_seqr |        5006     68.74%     68.74% |        2072     28.45%     97.19% |          86      1.18%     98.37% |          30      0.41%     98.78% |          59      0.81%     99.59% |          29      0.40%     99.99% |           1      0.01%    100.00% |           0      0.00%    100.00% |           0      0.00%    100.00% |           0      0.00%    100.00% (Unspecified)
system.caches.RequestTypeMachineType.IFETCH.Directory.miss_type_mach_latency_hist_seqr::total         7283                       (Unspecified)
system.caches.RequestTypeMachineType.RMW_Read.L1Cache.miss_type_mach_latency_hist_seqr::bucket_size            2                       (Unspecified)
system.caches.RequestTypeMachineType.RMW_Read.L1Cache.miss_type_mach_latency_hist_seqr::max_bucket           19                       (Unspecified)
system.caches.RequestTypeMachineType.RMW_Read.L1Cache.miss_type_mach_latency_hist_seqr::samples            1                       (Unspecified)
system.caches.RequestTypeMachineType.RMW_Read.L1Cache.miss_type_mach_latency_hist_seqr::mean           16                       (Unspecified)
system.caches.RequestTypeMachineType.RMW_Read.L1Cache.miss_type_mach_latency_hist_seqr::gmean    16.000000                       (Unspecified)
system.caches.RequestTypeMachineType.RMW_Read.L1Cache.miss_type_mach_latency_hist_seqr::stdev          nan                       (Unspecified)
system.caches.RequestTypeMachineType.RMW_Read.L1Cache.miss_type_mach_latency_hist_seqr |           0      0.00%      0.00% |           0      0.00%      0.00% |           0      0.00%      0.00% |           0      0.00%      0.00% |           0      0.00%      0.00% |           0      0.00%      0.00% |           0      0.00%      0.00% |           0      0.00%      0.00% |           1    100.00%    100.00% |           0      0.00%    100.00% (Unspecified)
system.caches.RequestTypeMachineType.RMW_Read.L1Cache.miss_type_mach_latency_hist_seqr::total            1                       (Unspecified)
system.caches.RequestTypeMachineType.RMW_Read.Directory.miss_type_mach_latency_hist_seqr::bucket_size           32                       (Unspecified)
system.caches.RequestTypeMachineType.RMW_Read.Directory.miss_type_mach_latency_hist_seqr::max_bucket          319                       (Unspecified)
system.caches.RequestTypeMachineType.RMW_Read.Directory.miss_type_mach_latency_hist_seqr::samples           63                       (Unspecified)
system.caches.RequestTypeMachineType.RMW_Read.Directory.miss_type_mach_latency_hist_seqr::mean    60.079365                       (Unspecified)
system.caches.RequestTypeMachineType.RMW_Read.Directory.miss_type_mach_latency_hist_seqr::gmean    55.647038                       (Unspecified)
system.caches.RequestTypeMachineType.RMW_Read.Directory.miss_type_mach_latency_hist_seqr::stdev    32.481410                       (Unspecified)
system.caches.RequestTypeMachineType.RMW_Read.Directory.miss_type_mach_latency_hist_seqr |           3      4.76%      4.76% |          48     76.19%     80.95% |          11     17.46%     98.41% |           0      0.00%     98.41% |           0      0.00%     98.41% |           0      0.00%     98.41% |           0      0.00%     98.41% |           0      0.00%     98.41% |           1      1.59%    100.00% |           0      0.00%    100.00% (Unspecified)
system.caches.RequestTypeMachineType.RMW_Read.Directory.miss_type_mach_latency_hist_seqr::total           63                       (Unspecified)
system.caches.RequestTypeMachineType.Locked_RMW_Read.L1Cache.miss_type_mach_latency_hist_seqr::bucket_size            4                       (Unspecified)
system.caches.RequestTypeMachineType.Locked_RMW_Read.L1Cache.miss_type_mach_latency_hist_seqr::max_bucket           39                       (Unspecified)
system.caches.RequestTypeMachineType.Locked_RMW_Read.L1Cache.miss_type_mach_latency_hist_seqr::samples            3                       (Unspecified)
system.caches.RequestTypeMachineType.Locked_RMW_Read.L1Cache.miss_type_mach_latency_hist_seqr::mean    19.333333                       (Unspecified)
system.caches.RequestTypeMachineType.Locked_RMW_Read.L1Cache.miss_type_mach_latency_hist_seqr::gmean    18.810678                       (Unspecified)
system.caches.RequestTypeMachineType.Locked_RMW_Read.L1Cache.miss_type_mach_latency_hist_seqr::stdev     5.773503                       (Unspecified)
system.caches.RequestTypeMachineType.Locked_RMW_Read.L1Cache.miss_type_mach_latency_hist_seqr |           0      0.00%      0.00% |           0      0.00%      0.00% |           0      0.00%      0.00% |           0      0.00%      0.00% |           2     66.67%     66.67% |           0      0.00%     66.67% |           1     33.33%    100.00% |           0      0.00%    100.00% |           0      0.00%    100.00% |           0      0.00%    100.00% (Unspecified)
system.caches.RequestTypeMachineType.Locked_RMW_Read.L1Cache.miss_type_mach_latency_hist_seqr::total            3                       (Unspecified)
system.caches.RequestTypeMachineType.Locked_RMW_Read.Directory.miss_type_mach_latency_hist_seqr::bucket_size           32                       (Unspecified)
system.caches.RequestTypeMachineType.Locked_RMW_Read.Directory.miss_type_mach_latency_hist_seqr::max_bucket          319                       (Unspecified)
system.caches.RequestTypeMachineType.Locked_RMW_Read.Directory.miss_type_mach_latency_hist_seqr::samples           30                       (Unspecified)
system.caches.RequestTypeMachineType.Locked_RMW_Read.Directory.miss_type_mach_latency_hist_seqr::mean    65.533333                       (Unspecified)
system.caches.RequestTypeMachineType.Locked_RMW_Read.Directory.miss_type_mach_latency_hist_seqr::gmean    57.201670                       (Unspecified)
system.caches.RequestTypeMachineType.Locked_RMW_Read.Directory.miss_type_mach_latency_hist_seqr::stdev    50.407124                       (Unspecified)
system.caches.RequestTypeMachineType.Locked_RMW_Read.Directory.miss_type_mach_latency_hist_seqr |           3     10.00%     10.00% |          15     50.00%     60.00% |          11     36.67%     96.67% |           0      0.00%     96.67% |           0      0.00%     96.67% |           0      0.00%     96.67% |           0      0.00%     96.67% |           0      0.00%     96.67% |           0      0.00%     96.67% |           1      3.33%    100.00% (Unspecified)
system.caches.RequestTypeMachineType.Locked_RMW_Read.Directory.miss_type_mach_latency_hist_seqr::total           30                       (Unspecified)
system.caches.controllers0.fullyBusyCycles        67810                       # cycles for which number of transistions == max transitions (Unspecified)
system.caches.controllers0.cacheMemory.m_demand_hits            0                       # Number of cache demand hits (Unspecified)
system.caches.controllers0.cacheMemory.m_demand_misses            0                       # Number of cache demand misses (Unspecified)
system.caches.controllers0.cacheMemory.m_demand_accesses            0                       # Number of cache demand accesses (Unspecified)
system.caches.controllers0.forwardFromDir.m_buf_msgs     0.000025                       # Average number of messages in buffer (Unspecified)
system.caches.controllers0.forwardFromDir.m_stall_time  4999.702515                       # Average number of cycles messages are stalled in this MB (Unspecified)
system.caches.controllers0.mandatoryQueue.m_buf_msgs     0.045230                       # Average number of messages in buffer (Unspecified)
system.caches.controllers0.mandatoryQueue.m_stall_time  1015.994641                       # Average number of cycles messages are stalled in this MB (Unspecified)
system.caches.controllers0.power_state.pwrStateResidencyTicks::UNDEFINED 268416708000                       # Cumulative time (in ticks) in various power states (Tick)
system.caches.controllers0.requestToDir.m_buf_msgs     0.000052                       # Average number of messages in buffer (Unspecified)
system.caches.controllers0.requestToDir.m_stall_time   999.999993                       # Average number of cycles messages are stalled in this MB (Unspecified)
system.caches.controllers0.responseFromDirOrSibling.m_buf_msgs     0.000027                       # Average number of messages in buffer (Unspecified)
system.caches.controllers0.responseFromDirOrSibling.m_stall_time  4999.998640                       # Average number of cycles messages are stalled in this MB (Unspecified)
system.caches.controllers0.responseToDirOrSibling.m_buf_msgs     0.000000                       # Average number of messages in buffer (Unspecified)
system.caches.controllers0.responseToDirOrSibling.m_stall_time   908.262883                       # Average number of cycles messages are stalled in this MB (Unspecified)
system.caches.controllers1.fullyBusyCycles       109570                       # cycles for which number of transistions == max transitions (Unspecified)
system.caches.controllers1.cacheMemory.m_demand_hits            0                       # Number of cache demand hits (Unspecified)
system.caches.controllers1.cacheMemory.m_demand_misses            0                       # Number of cache demand misses (Unspecified)
system.caches.controllers1.cacheMemory.m_demand_accesses            0                       # Number of cache demand accesses (Unspecified)
system.caches.controllers1.forwardFromDir.m_buf_msgs     0.000041                       # Average number of messages in buffer (Unspecified)
system.caches.controllers1.forwardFromDir.m_stall_time  4541.296122                       # Average number of cycles messages are stalled in this MB (Unspecified)
system.caches.controllers1.mandatoryQueue.m_buf_msgs     0.452975                       # Average number of messages in buffer (Unspecified)
system.caches.controllers1.mandatoryQueue.m_stall_time   933.727661                       # Average number of cycles messages are stalled in this MB (Unspecified)
system.caches.controllers1.power_state.pwrStateResidencyTicks::UNDEFINED 268416708000                       # Cumulative time (in ticks) in various power states (Tick)
system.caches.controllers1.requestToDir.m_buf_msgs     0.000085                       # Average number of messages in buffer (Unspecified)
system.caches.controllers1.requestToDir.m_stall_time   908.263147                       # Average number of cycles messages are stalled in this MB (Unspecified)
system.caches.controllers1.responseFromDirOrSibling.m_buf_msgs     0.000044                       # Average number of messages in buffer (Unspecified)
system.caches.controllers1.responseFromDirOrSibling.m_stall_time  4541.314805                       # Average number of cycles messages are stalled in this MB (Unspecified)
system.caches.controllers1.responseToDirOrSibling.m_buf_msgs     0.000000                       # Average number of messages in buffer (Unspecified)
system.caches.controllers1.responseToDirOrSibling.m_stall_time   908.259221                       # Average number of cycles messages are stalled in this MB (Unspecified)
system.caches.controllers2.cacheMemory.m_demand_hits            0                       # Number of cache demand hits (Unspecified)
system.caches.controllers2.cacheMemory.m_demand_misses            0                       # Number of cache demand misses (Unspecified)
system.caches.controllers2.cacheMemory.m_demand_accesses            0                       # Number of cache demand accesses (Unspecified)
system.caches.controllers2.power_state.pwrStateResidencyTicks::UNDEFINED 268416708000                       # Cumulative time (in ticks) in various power states (Tick)
system.caches.controllers3.cacheMemory.m_demand_hits            0                       # Number of cache demand hits (Unspecified)
system.caches.controllers3.cacheMemory.m_demand_misses            0                       # Number of cache demand misses (Unspecified)
system.caches.controllers3.cacheMemory.m_demand_accesses            0                       # Number of cache demand accesses (Unspecified)
system.caches.controllers3.power_state.pwrStateResidencyTicks::UNDEFINED 268416708000                       # Cumulative time (in ticks) in various power states (Tick)
system.caches.controllers4.forwardToCache.m_buf_msgs     0.000069                       # Average number of messages in buffer (Unspecified)
system.caches.controllers4.forwardToCache.m_stall_time   999.992310                       # Average number of cycles messages are stalled in this MB (Unspecified)
system.caches.controllers4.power_state.pwrStateResidencyTicks::UNDEFINED 268416708000                       # Cumulative time (in ticks) in various power states (Tick)
system.caches.controllers4.requestFromCache.m_buf_msgs     0.000137                       # Average number of messages in buffer (Unspecified)
system.caches.controllers4.requestFromCache.m_stall_time  4999.999888                       # Average number of cycles messages are stalled in this MB (Unspecified)
system.caches.controllers4.requestToMemory.m_buf_msgs     0.000083                       # Average number of messages in buffer (Unspecified)
system.caches.controllers4.requestToMemory.m_stall_time   999.999974                       # Average number of cycles messages are stalled in this MB (Unspecified)
system.caches.controllers4.responseFromCache.m_buf_msgs     0.000000                       # Average number of messages in buffer (Unspecified)
system.caches.controllers4.responseFromCache.m_stall_time  4541.314339                       # Average number of cycles messages are stalled in this MB (Unspecified)
system.caches.controllers4.responseFromMemory.m_buf_msgs     0.000107                       # Average number of messages in buffer (Unspecified)
system.caches.controllers4.responseFromMemory.m_stall_time   999.999747                       # Average number of cycles messages are stalled in this MB (Unspecified)
system.caches.controllers4.responseToCache.m_buf_msgs     0.000070                       # Average number of messages in buffer (Unspecified)
system.caches.controllers4.responseToCache.m_stall_time   999.999743                       # Average number of cycles messages are stalled in this MB (Unspecified)
system.caches.network.msg_count.Control        102416                       (Unspecified)
system.caches.network.msg_byte.Control         819328                       (Unspecified)
system.caches.network.msg_count.Data            44424                       (Unspecified)
system.caches.network.msg_byte.Data           3198528                       (Unspecified)
system.caches.network.int_link_buffers11.m_buf_msgs     0.000000                       # Average number of messages in buffer (Unspecified)
system.caches.network.int_link_buffers11.m_stall_time  2724.788626                       # Average number of cycles messages are stalled in this MB (Unspecified)
system.caches.network.int_link_buffers14.m_buf_msgs     0.000000                       # Average number of messages in buffer (Unspecified)
system.caches.network.int_link_buffers14.m_stall_time  2724.777639                       # Average number of cycles messages are stalled in this MB (Unspecified)
system.caches.network.int_link_buffers2.m_buf_msgs     0.000000                       # Average number of messages in buffer (Unspecified)
system.caches.network.int_link_buffers2.m_stall_time  2724.788626                       # Average number of cycles messages are stalled in this MB (Unspecified)
system.caches.network.int_link_buffers21.m_buf_msgs     0.000085                       # Average number of messages in buffer (Unspecified)
system.caches.network.int_link_buffers21.m_stall_time  2724.789420                       # Average number of cycles messages are stalled in this MB (Unspecified)
system.caches.network.int_link_buffers23.m_buf_msgs     0.000000                       # Average number of messages in buffer (Unspecified)
system.caches.network.int_link_buffers23.m_stall_time  2724.777639                       # Average number of cycles messages are stalled in this MB (Unspecified)
system.caches.network.int_link_buffers49.m_buf_msgs     0.000025                       # Average number of messages in buffer (Unspecified)
system.caches.network.int_link_buffers49.m_stall_time  2999.821531                       # Average number of cycles messages are stalled in this MB (Unspecified)
system.caches.network.int_link_buffers50.m_buf_msgs     0.000027                       # Average number of messages in buffer (Unspecified)
system.caches.network.int_link_buffers50.m_stall_time  2999.999206                       # Average number of cycles messages are stalled in this MB (Unspecified)
system.caches.network.int_link_buffers52.m_buf_msgs     0.000041                       # Average number of messages in buffer (Unspecified)
system.caches.network.int_link_buffers52.m_stall_time  2724.777695                       # Average number of cycles messages are stalled in this MB (Unspecified)
system.caches.network.int_link_buffers53.m_buf_msgs     0.000044                       # Average number of messages in buffer (Unspecified)
system.caches.network.int_link_buffers53.m_stall_time  2724.788905                       # Average number of cycles messages are stalled in this MB (Unspecified)
system.caches.network.int_link_buffers9.m_buf_msgs     0.000052                       # Average number of messages in buffer (Unspecified)
system.caches.network.int_link_buffers9.m_stall_time  2999.999955                       # Average number of cycles messages are stalled in this MB (Unspecified)
system.caches.network.power_state.pwrStateResidencyTicks::UNDEFINED 268416708000                       # Cumulative time (in ticks) in various power states (Tick)
system.caches.network.routers0.percent_links_utilized     0.003559                       (Unspecified)
system.caches.network.routers0.msg_count.Control::0        12784                       (Unspecified)
system.caches.network.routers0.msg_count.Control::1         6804                       (Unspecified)
system.caches.network.routers0.msg_count.Control::2           12                       (Unspecified)
system.caches.network.routers0.msg_bytes.Control::0       102272                       (Unspecified)
system.caches.network.routers0.msg_bytes.Control::1        54432                       (Unspecified)
system.caches.network.routers0.msg_bytes.Control::2           96                       (Unspecified)
system.caches.network.routers0.msg_count.Data::0         1204                       (Unspecified)
system.caches.network.routers0.msg_count.Data::2         7232                       (Unspecified)
system.caches.network.routers0.msg_bytes.Data::0        86688                       (Unspecified)
system.caches.network.routers0.msg_bytes.Data::2       520704                       (Unspecified)
system.caches.network.routers0.port_buffers1.m_buf_msgs     0.000025                       # Average number of messages in buffer (Unspecified)
system.caches.network.routers0.port_buffers1.m_stall_time  3999.762027                       # Average number of cycles messages are stalled in this MB (Unspecified)
system.caches.network.routers0.port_buffers12.m_buf_msgs     0.000052                       # Average number of messages in buffer (Unspecified)
system.caches.network.routers0.port_buffers12.m_stall_time  1999.999978                       # Average number of cycles messages are stalled in this MB (Unspecified)
system.caches.network.routers0.port_buffers14.m_buf_msgs     0.000000                       # Average number of messages in buffer (Unspecified)
system.caches.network.routers0.port_buffers14.m_stall_time  1816.525758                       # Average number of cycles messages are stalled in this MB (Unspecified)
system.caches.network.routers0.port_buffers2.m_buf_msgs     0.000027                       # Average number of messages in buffer (Unspecified)
system.caches.network.routers0.port_buffers2.m_stall_time  3999.998927                       # Average number of cycles messages are stalled in this MB (Unspecified)
system.caches.network.routers0.port_buffers5.m_buf_msgs     0.000000                       # Average number of messages in buffer (Unspecified)
system.caches.network.routers0.port_buffers5.m_stall_time  1816.525758                       # Average number of cycles messages are stalled in this MB (Unspecified)
system.caches.network.routers0.power_state.pwrStateResidencyTicks::UNDEFINED 268416708000                       # Cumulative time (in ticks) in various power states (Tick)
system.caches.network.routers0.throttle00.link_utilization     0.013351                       (Unspecified)
system.caches.network.routers0.throttle00.msg_count.Control::1         6804                       (Unspecified)
system.caches.network.routers0.throttle00.msg_count.Control::2            5                       (Unspecified)
system.caches.network.routers0.throttle00.msg_bytes.Control::1        54432                       (Unspecified)
system.caches.network.routers0.throttle00.msg_bytes.Control::2           40                       (Unspecified)
system.caches.network.routers0.throttle00.msg_count.Data::2         7207                       (Unspecified)
system.caches.network.routers0.throttle00.msg_bytes.Data::2       518904                       (Unspecified)
system.caches.network.routers0.throttle01.link_utilization     0.000028                       (Unspecified)
system.caches.network.routers0.throttle01.msg_count.Control::2            7                       (Unspecified)
system.caches.network.routers0.throttle01.msg_bytes.Control::2           56                       (Unspecified)
system.caches.network.routers0.throttle01.msg_count.Data::2           16                       (Unspecified)
system.caches.network.routers0.throttle01.msg_bytes.Data::2         1152                       (Unspecified)
system.caches.network.routers0.throttle02.link_utilization            0                       (Unspecified)
system.caches.network.routers0.throttle03.link_utilization            0                       (Unspecified)
system.caches.network.routers0.throttle04.link_utilization     0.004415                       (Unspecified)
system.caches.network.routers0.throttle04.msg_count.Control::0        12784                       (Unspecified)
system.caches.network.routers0.throttle04.msg_bytes.Control::0       102272                       (Unspecified)
system.caches.network.routers0.throttle04.msg_count.Data::0         1204                       (Unspecified)
system.caches.network.routers0.throttle04.msg_count.Data::2            9                       (Unspecified)
system.caches.network.routers0.throttle04.msg_bytes.Data::0        86688                       (Unspecified)
system.caches.network.routers0.throttle04.msg_bytes.Data::2          648                       (Unspecified)
system.caches.network.routers1.percent_links_utilized     0.005804                       (Unspecified)
system.caches.network.routers1.msg_count.Control::0        20640                       (Unspecified)
system.caches.network.routers1.msg_count.Control::1        10968                       (Unspecified)
system.caches.network.routers1.msg_count.Control::2           12                       (Unspecified)
system.caches.network.routers1.msg_bytes.Control::0       165120                       (Unspecified)
system.caches.network.routers1.msg_bytes.Control::1        87744                       (Unspecified)
system.caches.network.routers1.msg_bytes.Control::2           96                       (Unspecified)
system.caches.network.routers1.msg_count.Data::0         2053                       (Unspecified)
system.caches.network.routers1.msg_count.Data::2        11745                       (Unspecified)
system.caches.network.routers1.msg_bytes.Data::0       147816                       (Unspecified)
system.caches.network.routers1.msg_bytes.Data::2       845640                       (Unspecified)
system.caches.network.routers1.port_buffers1.m_buf_msgs     0.000041                       # Average number of messages in buffer (Unspecified)
system.caches.network.routers1.port_buffers1.m_stall_time  3633.036912                       # Average number of cycles messages are stalled in this MB (Unspecified)
system.caches.network.routers1.port_buffers12.m_buf_msgs     0.000085                       # Average number of messages in buffer (Unspecified)
system.caches.network.routers1.port_buffers12.m_stall_time  1816.526287                       # Average number of cycles messages are stalled in this MB (Unspecified)
system.caches.network.routers1.port_buffers14.m_buf_msgs     0.000000                       # Average number of messages in buffer (Unspecified)
system.caches.network.routers1.port_buffers14.m_stall_time  1816.518434                       # Average number of cycles messages are stalled in this MB (Unspecified)
system.caches.network.routers1.port_buffers2.m_buf_msgs     0.000044                       # Average number of messages in buffer (Unspecified)
system.caches.network.routers1.port_buffers2.m_stall_time  3633.051859                       # Average number of cycles messages are stalled in this MB (Unspecified)
system.caches.network.routers1.port_buffers5.m_buf_msgs     0.000000                       # Average number of messages in buffer (Unspecified)
system.caches.network.routers1.port_buffers5.m_stall_time  1816.518434                       # Average number of cycles messages are stalled in this MB (Unspecified)
system.caches.network.routers1.power_state.pwrStateResidencyTicks::UNDEFINED 268416708000                       # Cumulative time (in ticks) in various power states (Tick)
system.caches.network.routers1.throttle00.link_utilization     0.021720                       (Unspecified)
system.caches.network.routers1.throttle00.msg_count.Control::1        10968                       (Unspecified)
system.caches.network.routers1.throttle00.msg_count.Control::2            7                       (Unspecified)
system.caches.network.routers1.throttle00.msg_bytes.Control::1        87744                       (Unspecified)
system.caches.network.routers1.throttle00.msg_bytes.Control::2           56                       (Unspecified)
system.caches.network.routers1.throttle00.msg_count.Data::2        11736                       (Unspecified)
system.caches.network.routers1.throttle00.msg_bytes.Data::2       844992                       (Unspecified)
system.caches.network.routers1.throttle01.link_utilization     0.000011                       (Unspecified)
system.caches.network.routers1.throttle01.msg_count.Control::2            5                       (Unspecified)
system.caches.network.routers1.throttle01.msg_bytes.Control::2           40                       (Unspecified)
system.caches.network.routers1.throttle01.msg_count.Data::2            6                       (Unspecified)
system.caches.network.routers1.throttle01.msg_bytes.Data::2          432                       (Unspecified)
system.caches.network.routers1.throttle02.link_utilization            0                       (Unspecified)
system.caches.network.routers1.throttle03.link_utilization            0                       (Unspecified)
system.caches.network.routers1.throttle04.link_utilization     0.007292                       (Unspecified)
system.caches.network.routers1.throttle04.msg_count.Control::0        20640                       (Unspecified)
system.caches.network.routers1.throttle04.msg_bytes.Control::0       165120                       (Unspecified)
system.caches.network.routers1.throttle04.msg_count.Data::0         2053                       (Unspecified)
system.caches.network.routers1.throttle04.msg_count.Data::2            3                       (Unspecified)
system.caches.network.routers1.throttle04.msg_bytes.Data::0       147816                       (Unspecified)
system.caches.network.routers1.throttle04.msg_bytes.Data::2          216                       (Unspecified)
system.caches.network.routers2.percent_links_utilized            0                       (Unspecified)
system.caches.network.routers2.power_state.pwrStateResidencyTicks::UNDEFINED 268416708000                       # Cumulative time (in ticks) in various power states (Tick)
system.caches.network.routers2.throttle00.link_utilization            0                       (Unspecified)
system.caches.network.routers2.throttle01.link_utilization            0                       (Unspecified)
system.caches.network.routers2.throttle02.link_utilization            0                       (Unspecified)
system.caches.network.routers2.throttle03.link_utilization            0                       (Unspecified)
[...]
system.mem_ctrl.rdPerTurnAround::0-63             124     62.00%     62.00% # Reads before turning the bus around for writes (Count)
system.mem_ctrl.rdPerTurnAround::64-127            46     23.00%     85.00% # Reads before turning the bus around for writes (Count)
system.mem_ctrl.rdPerTurnAround::128-191           14      7.00%     92.00% # Reads before turning the bus around for writes (Count)
system.mem_ctrl.rdPerTurnAround::192-255            2      1.00%     93.00% # Reads before turning the bus around for writes (Count)
system.mem_ctrl.rdPerTurnAround::256-319            7      3.50%     96.50% # Reads before turning the bus around for writes (Count)
system.mem_ctrl.rdPerTurnAround::320-383            2      1.00%     97.50% # Reads before turning the bus around for writes (Count)
system.mem_ctrl.rdPerTurnAround::384-447            2      1.00%     98.50% # Reads before turning the bus around for writes (Count)
system.mem_ctrl.rdPerTurnAround::832-895            1      0.50%     99.00% # Reads before turning the bus around for writes (Count)
system.mem_ctrl.rdPerTurnAround::896-959            1      0.50%     99.50% # Reads before turning the bus around for writes (Count)
system.mem_ctrl.rdPerTurnAround::1216-1279            1      0.50%    100.00% # Reads before turning the bus around for writes (Count)
system.mem_ctrl.rdPerTurnAround::total            200                       # Reads before turning the bus around for writes (Count)
system.mem_ctrl.wrPerTurnAround::samples          200                       # Writes before turning the bus around for reads (Count)
system.mem_ctrl.wrPerTurnAround::mean       16.050000                       # Writes before turning the bus around for reads (Count)
system.mem_ctrl.wrPerTurnAround::gmean      16.047183                       # Writes before turning the bus around for reads (Count)
system.mem_ctrl.wrPerTurnAround::stdev       0.313033                       # Writes before turning the bus around for reads (Count)
system.mem_ctrl.wrPerTurnAround::16               195     97.50%     97.50% # Writes before turning the bus around for reads (Count)
system.mem_ctrl.wrPerTurnAround::18                 5      2.50%    100.00% # Writes before turning the bus around for reads (Count)
system.mem_ctrl.wrPerTurnAround::total            200                       # Writes before turning the bus around for reads (Count)
system.mem_ctrl.bytesReadWrQ                    63296                       # Total number of bytes read from write queue (Byte)
system.mem_ctrl.bytesReadSys                  1210944                       # Total read bytes from the system interface side (Byte)
system.mem_ctrl.bytesWrittenSys                209216                       # Total written bytes from the system interface side (Byte)
system.mem_ctrl.avgRdBWSys               4511433.02152413                       # Average system read bandwidth in Byte/s ((Byte/Second))
system.mem_ctrl.avgWrBWSys               779444.77286414                       # Average system write bandwidth in Byte/s ((Byte/Second))
system.mem_ctrl.totGap                   268416649000                       # Total gap between requests (Tick)
system.mem_ctrl.avgGap                    12096288.82                       # Average gap between requests ((Tick/Count))
system.mem_ctrl.requestorReadBytes::caches.controllers4      1147648                       # Per-requestor bytes read from memory (Byte)
system.mem_ctrl.requestorWriteBytes::caches.controllers4       205440                       # Per-requestor bytes write to memory (Byte)
system.mem_ctrl.requestorReadRate::caches.controllers4 4275620.577240668237                       # Per-requestor bytes read from memory rate ((Byte/Second))
system.mem_ctrl.requestorWriteRate::caches.controllers4 765377.094185955008                       # Per-requestor bytes write to memory rate ((Byte/Second))
system.mem_ctrl.requestorReadAccesses::caches.controllers4        18921                       # Per-requestor read serviced memory accesses (Count)
system.mem_ctrl.requestorWriteAccesses::caches.controllers4         3269                       # Per-requestor write serviced memory accesses (Count)
system.mem_ctrl.requestorReadTotalLat::caches.controllers4    541394000                       # Per-requestor read total memory access latency (Tick)
system.mem_ctrl.requestorWriteTotalLat::caches.controllers4 6506277491250                       # Per-requestor write total memory access latency (Tick)
system.mem_ctrl.requestorReadAvgLat::caches.controllers4     28613.39                       # Per-requestor read average memory access latency ((Tick/Count))
system.mem_ctrl.requestorWriteAvgLat::caches.controllers4 1990295959.39                       # Per-requestor write average memory access latency ((Tick/Count))
system.mem_ctrl.dram.bytesRead::caches.controllers4      1210944                       # Number of bytes read from this memory (Byte)
system.mem_ctrl.dram.bytesRead::total         1210944                       # Number of bytes read from this memory (Byte)
system.mem_ctrl.dram.bytesWritten::caches.controllers4       209216                       # Number of bytes written to this memory (Byte)
system.mem_ctrl.dram.bytesWritten::total       209216                       # Number of bytes written to this memory (Byte)
system.mem_ctrl.dram.numReads::caches.controllers4        18921                       # Number of read requests responded to by this memory (Count)
system.mem_ctrl.dram.numReads::total            18921                       # Number of read requests responded to by this memory (Count)
system.mem_ctrl.dram.numWrites::caches.controllers4         3269                       # Number of write requests responded to by this memory (Count)
system.mem_ctrl.dram.numWrites::total            3269                       # Number of write requests responded to by this memory (Count)
system.mem_ctrl.dram.bwRead::caches.controllers4      4511433                       # Total read bandwidth from this memory ((Byte/Second))
system.mem_ctrl.dram.bwRead::total            4511433                       # Total read bandwidth from this memory ((Byte/Second))
system.mem_ctrl.dram.bwWrite::caches.controllers4       779445                       # Write bandwidth from this memory ((Byte/Second))
system.mem_ctrl.dram.bwWrite::total            779445                       # Write bandwidth from this memory ((Byte/Second))
system.mem_ctrl.dram.bwTotal::caches.controllers4      5290878                       # Total bandwidth to/from this memory ((Byte/Second))
system.mem_ctrl.dram.bwTotal::total           5290878                       # Total bandwidth to/from this memory ((Byte/Second))
system.mem_ctrl.dram.readBursts                 17932                       # Number of DRAM read bursts (Count)
system.mem_ctrl.dram.writeBursts                 3210                       # Number of DRAM write bursts (Count)
system.mem_ctrl.dram.perBankRdBursts::0          1618                       # Per bank write bursts (Count)
system.mem_ctrl.dram.perBankRdBursts::1          1208                       # Per bank write bursts (Count)
system.mem_ctrl.dram.perBankRdBursts::2           597                       # Per bank write bursts (Count)
system.mem_ctrl.dram.perBankRdBursts::3           658                       # Per bank write bursts (Count)
system.mem_ctrl.dram.perBankRdBursts::4          1184                       # Per bank write bursts (Count)
system.mem_ctrl.dram.perBankRdBursts::5           553                       # Per bank write bursts (Count)
system.mem_ctrl.dram.perBankRdBursts::6           549                       # Per bank write bursts (Count)
system.mem_ctrl.dram.perBankRdBursts::7          1709                       # Per bank write bursts (Count)
system.mem_ctrl.dram.perBankRdBursts::8           944                       # Per bank write bursts (Count)
system.mem_ctrl.dram.perBankRdBursts::9           922                       # Per bank write bursts (Count)
system.mem_ctrl.dram.perBankRdBursts::10         2054                       # Per bank write bursts (Count)
system.mem_ctrl.dram.perBankRdBursts::11         2940                       # Per bank write bursts (Count)
system.mem_ctrl.dram.perBankRdBursts::12         1669                       # Per bank write bursts (Count)
system.mem_ctrl.dram.perBankRdBursts::13          866                       # Per bank write bursts (Count)
system.mem_ctrl.dram.perBankRdBursts::14          281                       # Per bank write bursts (Count)
system.mem_ctrl.dram.perBankRdBursts::15          180                       # Per bank write bursts (Count)
system.mem_ctrl.dram.perBankWrBursts::0           177                       # Per bank write bursts (Count)
system.mem_ctrl.dram.perBankWrBursts::1           183                       # Per bank write bursts (Count)
system.mem_ctrl.dram.perBankWrBursts::2           134                       # Per bank write bursts (Count)
system.mem_ctrl.dram.perBankWrBursts::3           141                       # Per bank write bursts (Count)
system.mem_ctrl.dram.perBankWrBursts::4           107                       # Per bank write bursts (Count)
system.mem_ctrl.dram.perBankWrBursts::5            66                       # Per bank write bursts (Count)
system.mem_ctrl.dram.perBankWrBursts::6            73                       # Per bank write bursts (Count)
system.mem_ctrl.dram.perBankWrBursts::7           434                       # Per bank write bursts (Count)
system.mem_ctrl.dram.perBankWrBursts::8           236                       # Per bank write bursts (Count)
system.mem_ctrl.dram.perBankWrBursts::9           280                       # Per bank write bursts (Count)
system.mem_ctrl.dram.perBankWrBursts::10          755                       # Per bank write bursts (Count)
system.mem_ctrl.dram.perBankWrBursts::11            1                       # Per bank write bursts (Count)
system.mem_ctrl.dram.perBankWrBursts::12           53                       # Per bank write bursts (Count)
system.mem_ctrl.dram.perBankWrBursts::13          570                       # Per bank write bursts (Count)
system.mem_ctrl.dram.perBankWrBursts::14            0                       # Per bank write bursts (Count)
system.mem_ctrl.dram.perBankWrBursts::15            0                       # Per bank write bursts (Count)
system.mem_ctrl.dram.totQLat                205169000                       # Total ticks spent queuing (Tick)
system.mem_ctrl.dram.totBusLat               89660000                       # Total ticks spent in databus transfers (Tick)
system.mem_ctrl.dram.totMemAccLat           541394000                       # Total ticks spent from burst creation until serviced by the DRAM (Tick)
system.mem_ctrl.dram.avgQLat                 11441.50                       # Average queueing delay per DRAM burst ((Tick/Count))
system.mem_ctrl.dram.avgBusLat                5000.00                       # Average bus latency per DRAM burst ((Tick/Count))
system.mem_ctrl.dram.avgMemAccLat            30191.50                       # Average memory access latency per DRAM burst ((Tick/Count))
system.mem_ctrl.dram.readRowHits                10599                       # Number of row buffer hits during reads (Count)
system.mem_ctrl.dram.writeRowHits                2810                       # Number of row buffer hits during writes (Count)
system.mem_ctrl.dram.readRowHitRate             59.11                       # Row buffer hit rate for reads (Ratio)
system.mem_ctrl.dram.writeRowHitRate            87.54                       # Row buffer hit rate for writes (Ratio)
system.mem_ctrl.dram.bytesPerActivate::samples         7728                       # Bytes accessed per row activation (Byte)
system.mem_ctrl.dram.bytesPerActivate::mean   175.014493                       # Bytes accessed per row activation (Byte)
system.mem_ctrl.dram.bytesPerActivate::gmean   127.568258                       # Bytes accessed per row activation (Byte)
system.mem_ctrl.dram.bytesPerActivate::stdev   186.455706                       # Bytes accessed per row activation (Byte)
system.mem_ctrl.dram.bytesPerActivate::0-127         3301     42.71%     42.71% # Bytes accessed per row activation (Byte)
system.mem_ctrl.dram.bytesPerActivate::128-255         3187     41.24%     83.95% # Bytes accessed per row activation (Byte)
system.mem_ctrl.dram.bytesPerActivate::256-383          611      7.91%     91.86% # Bytes accessed per row activation (Byte)
system.mem_ctrl.dram.bytesPerActivate::384-511          168      2.17%     94.03% # Bytes accessed per row activation (Byte)
system.mem_ctrl.dram.bytesPerActivate::512-639          104      1.35%     95.38% # Bytes accessed per row activation (Byte)
system.mem_ctrl.dram.bytesPerActivate::640-767           76      0.98%     96.36% # Bytes accessed per row activation (Byte)
system.mem_ctrl.dram.bytesPerActivate::768-895           55      0.71%     97.08% # Bytes accessed per row activation (Byte)
system.mem_ctrl.dram.bytesPerActivate::896-1023           50      0.65%     97.72% # Bytes accessed per row activation (Byte)
system.mem_ctrl.dram.bytesPerActivate::1024-1151          176      2.28%    100.00% # Bytes accessed per row activation (Byte)
system.mem_ctrl.dram.bytesPerActivate::total         7728                       # Bytes accessed per row activation (Byte)
system.mem_ctrl.dram.bytesRead                1147648                       # Total number of bytes read from DRAM (Byte)
system.mem_ctrl.dram.bytesWritten              205440                       # Total number of bytes written to DRAM (Byte)
system.mem_ctrl.dram.avgRdBW                 4.275621                       # Average DRAM read bandwidth in MiBytes/s ((Byte/Second))
system.mem_ctrl.dram.avgWrBW                 0.765377                       # Average DRAM write bandwidth in MiBytes/s ((Byte/Second))
system.mem_ctrl.dram.peakBW                  12800.00                       # Theoretical peak bandwidth in MiByte/s ((Byte/Second))
system.mem_ctrl.dram.busUtil                     0.04                       # Data bus utilization in percentage (Ratio)
system.mem_ctrl.dram.busUtilRead                 0.03                       # Data bus utilization in percentage for reads (Ratio)
system.mem_ctrl.dram.busUtilWrite                0.01                       # Data bus utilization in percentage for writes (Ratio)
system.mem_ctrl.dram.pageHitRate                63.42                       # Row buffer hit rate, read and write combined (Ratio)
system.mem_ctrl.dram.power_state.pwrStateResidencyTicks::UNDEFINED 268416708000                       # Cumulative time (in ticks) in various power states (Tick)
system.mem_ctrl.dram.rank0.actEnergy         25354140                       # Energy for activate commands per rank (pJ) (Joule)
system.mem_ctrl.dram.rank0.preEnergy         13468455                       # Energy for precharge commands per rank (pJ) (Joule)
system.mem_ctrl.dram.rank0.readEnergy        57662640                       # Energy for read commands per rank (pJ) (Joule)
system.mem_ctrl.dram.rank0.writeEnergy        6864300                       # Energy for write commands per rank (pJ) (Joule)
system.mem_ctrl.dram.rank0.refreshEnergy 21188484720.000004                       # Energy for refresh commands per rank (pJ) (Joule)
system.mem_ctrl.dram.rank0.actBackEnergy   8397095220                       # Energy for active background per rank (pJ) (Joule)
system.mem_ctrl.dram.rank0.preBackEnergy  96000778080                       # Energy for precharge background per rank (pJ) (Joule)
system.mem_ctrl.dram.rank0.actPowerDownEnergy            0                       # Energy for active power-down per rank (pJ) (Joule)
system.mem_ctrl.dram.rank0.prePowerDownEnergy            0                       # Energy for precharge power-down per rank (pJ) (Joule)
system.mem_ctrl.dram.rank0.selfRefreshEnergy            0                       # Energy for self refresh per rank (pJ) (Joule)
system.mem_ctrl.dram.rank0.totalEnergy   125689707555                       # Total energy per rank (pJ) (Joule)
system.mem_ctrl.dram.rank0.averagePower    468.263352                       # Core power per rank (mW) (Watt)
system.mem_ctrl.dram.rank0.totalIdleTime            0                       # Total Idle time Per DRAM Rank (Tick)
system.mem_ctrl.dram.rank0.pwrStateTime::IDLE 249499627000                       # Time in different power states (Tick)
system.mem_ctrl.dram.rank0.pwrStateTime::REF   8962980000                       # Time in different power states (Tick)
system.mem_ctrl.dram.rank0.pwrStateTime::SREF            0                       # Time in different power states (Tick)
system.mem_ctrl.dram.rank0.pwrStateTime::PRE_PDN            0                       # Time in different power states (Tick)
system.mem_ctrl.dram.rank0.pwrStateTime::ACT   9954101000                       # Time in different power states (Tick)
system.mem_ctrl.dram.rank0.pwrStateTime::ACT_PDN            0                       # Time in different power states (Tick)
system.mem_ctrl.dram.rank1.actEnergy         29859480                       # Energy for activate commands per rank (pJ) (Joule)
system.mem_ctrl.dram.rank1.preEnergy         15859305                       # Energy for precharge commands per rank (pJ) (Joule)
system.mem_ctrl.dram.rank1.readEnergy        70371840                       # Energy for read commands per rank (pJ) (Joule)
system.mem_ctrl.dram.rank1.writeEnergy        9891900                       # Energy for write commands per rank (pJ) (Joule)
system.mem_ctrl.dram.rank1.refreshEnergy 21188484720.000004                       # Energy for refresh commands per rank (pJ) (Joule)
system.mem_ctrl.dram.rank1.actBackEnergy   9535669650                       # Energy for active background per rank (pJ) (Joule)
system.mem_ctrl.dram.rank1.preBackEnergy  95041978560                       # Energy for precharge background per rank (pJ) (Joule)
system.mem_ctrl.dram.rank1.actPowerDownEnergy            0                       # Energy for active power-down per rank (pJ) (Joule)
system.mem_ctrl.dram.rank1.prePowerDownEnergy            0                       # Energy for precharge power-down per rank (pJ) (Joule)
system.mem_ctrl.dram.rank1.selfRefreshEnergy            0                       # Energy for self refresh per rank (pJ) (Joule)
system.mem_ctrl.dram.rank1.totalEnergy   125892115455                       # Total energy per rank (pJ) (Joule)
system.mem_ctrl.dram.rank1.averagePower    469.017433                       # Core power per rank (mW) (Watt)
system.mem_ctrl.dram.rank1.totalIdleTime            0                       # Total Idle time Per DRAM Rank (Tick)
system.mem_ctrl.dram.rank1.pwrStateTime::IDLE 246996371500                       # Time in different power states (Tick)
system.mem_ctrl.dram.rank1.pwrStateTime::REF   8962980000                       # Time in different power states (Tick)
system.mem_ctrl.dram.rank1.pwrStateTime::SREF            0                       # Time in different power states (Tick)
system.mem_ctrl.dram.rank1.pwrStateTime::PRE_PDN            0                       # Time in different power states (Tick)
system.mem_ctrl.dram.rank1.pwrStateTime::ACT  12457356500                       # Time in different power states (Tick)
system.mem_ctrl.dram.rank1.pwrStateTime::ACT_PDN            0                       # Time in different power states (Tick)
system.mem_ctrl.power_state.pwrStateResidencyTicks::UNDEFINED 268416708000                       # Cumulative time (in ticks) in various power states (Tick)
system.workload.inst.arm                            0                       # number of arm instructions executed (Count)
system.workload.inst.quiesce                        0                       # number of quiesce instructions executed (Count)

---------- End Simulation Statistics   ----------
