
---------- Begin Simulation Statistics ----------
simSeconds                                   0.004431                       # Number of seconds simulated (Second)
simTicks                                   4430716000                       # Number of ticks simulated (Tick)
finalTick                                  4430716000                       # Number of ticks from beginning of simulation (restored from checkpoints and never reset) (Tick)
simFreq                                  1000000000000                       # The number of ticks per simulated second ((Tick/Second))
hostSeconds                                      5.09                       # Real time elapsed on the host (Second)
hostTickRate                                871183921                       # The number of ticks simulated per host second (ticks/s) ((Tick/Second))
hostMemory                                     823072                       # Number of bytes of host memory used (Byte)
simInsts                                      1106211                       # Number of instructions simulated (Count)
simOps                                        1847295                       # Number of ops (including micro ops) simulated (Count)
hostInstRate                                   217501                       # Simulator instruction rate (inst/s) ((Count/Second))
hostOpRate                                     363211                       # Simulator op (including micro ops) rate (op/s) ((Count/Second))
system.caches.m_outstandReqHistSeqr::bucket_size            1                       (Unspecified)
system.caches.m_outstandReqHistSeqr::max_bucket            9                       (Unspecified)
system.caches.m_outstandReqHistSeqr::samples      1868720                       (Unspecified)
system.caches.m_outstandReqHistSeqr::mean     1.000011                       (Unspecified)
system.caches.m_outstandReqHistSeqr::gmean     1.000007                       (Unspecified)
system.caches.m_outstandReqHistSeqr::stdev     0.003271                       (Unspecified)
system.caches.m_outstandReqHistSeqr      |           0      0.00%      0.00% |     1868700    100.00%    100.00% |          20      0.00%    100.00% |           0      0.00%    100.00% |           0      0.00%    100.00% |           0      0.00%    100.00% |           0      0.00%    100.00% |           0      0.00%    100.00% |           0      0.00%    100.00% |           0      0.00%    100.00% (Unspecified)
system.caches.m_outstandReqHistSeqr::total      1868720                       (Unspecified)
system.caches.m_latencyHistSeqr::bucket_size           64                       (Unspecified)
system.caches.m_latencyHistSeqr::max_bucket          639                       (Unspecified)
system.caches.m_latencyHistSeqr::samples      1868720                       (Unspecified)
system.caches.m_latencyHistSeqr::mean        1.372070                       (Unspecified)
system.caches.m_latencyHistSeqr::gmean       1.022947                       (Unspecified)
system.caches.m_latencyHistSeqr::stdev       5.552222                       (Unspecified)
system.caches.m_latencyHistSeqr          |     1865712     99.84%     99.84% |        2763      0.15%     99.99% |          88      0.00%     99.99% |          41      0.00%     99.99% |          70      0.00%    100.00% |          46      0.00%    100.00% |           0      0.00%    100.00% |           0      0.00%    100.00% |           0      0.00%    100.00% |           0      0.00%    100.00% (Unspecified)
system.caches.m_latencyHistSeqr::total        1868720                       (Unspecified)
system.caches.m_hitLatencyHistSeqr::bucket_size            1                       (Unspecified)
system.caches.m_hitLatencyHistSeqr::max_bucket            9                       (Unspecified)
system.caches.m_hitLatencyHistSeqr::samples      1858609                       (Unspecified)
system.caches.m_hitLatencyHistSeqr::mean            1                       (Unspecified)
system.caches.m_hitLatencyHistSeqr::gmean            1                       (Unspecified)
system.caches.m_hitLatencyHistSeqr       |           0      0.00%      0.00% |     1858609    100.00%    100.00% |           0      0.00%    100.00% |           0      0.00%    100.00% |           0      0.00%    100.00% |           0      0.00%    100.00% |           0      0.00%    100.00% |           0      0.00%    100.00% |           0      0.00%    100.00% |           0      0.00%    100.00% (Unspecified)
system.caches.m_hitLatencyHistSeqr::total      1858609                       (Unspecified)
system.caches.m_missLatencyHistSeqr::bucket_size           64                       (Unspecified)
system.caches.m_missLatencyHistSeqr::max_bucket          639                       (Unspecified)
system.caches.m_missLatencyHistSeqr::samples        10111                       (Unspecified)
system.caches.m_missLatencyHistSeqr::mean    69.766096                       (Unspecified)
system.caches.m_missLatencyHistSeqr::gmean    66.236787                       (Unspecified)
system.caches.m_missLatencyHistSeqr::stdev    31.534080                       (Unspecified)
system.caches.m_missLatencyHistSeqr      |        7103     70.25%     70.25% |        2763     27.33%     97.58% |          88      0.87%     98.45% |          41      0.41%     98.85% |          70      0.69%     99.55% |          46      0.45%    100.00% |           0      0.00%    100.00% |           0      0.00%    100.00% |           0      0.00%    100.00% |           0      0.00%    100.00% (Unspecified)
system.caches.m_missLatencyHistSeqr::total        10111                       (Unspecified)
system.caches.L1Cache_Controller.Load    |      349764     20.34%     20.34% |     1370026     79.66%    100.00% |           0      0.00%    100.00% |           0      0.00%    100.00% (Unspecified)
system.caches.L1Cache_Controller.Load::total      1719790                       (Unspecified)
system.caches.L1Cache_Controller.Store   |       22295     14.97%     14.97% |      126635     85.03%    100.00% |           0      0.00%    100.00% |           0      0.00%    100.00% (Unspecified)
system.caches.L1Cache_Controller.Store::total       148930                       (Unspecified)
system.caches.L1Cache_Controller.Replacement |     2005436     67.21%     67.21% |      978555     32.79%    100.00% |           0      0.00%    100.00% |           0      0.00%    100.00% (Unspecified)
system.caches.L1Cache_Controller.Replacement::total      2983991                       (Unspecified)
system.caches.L1Cache_Controller.FwdGetS |          10     83.33%     83.33% |           2     16.67%    100.00% |           0      0.00%    100.00% |           0      0.00%    100.00% (Unspecified)
system.caches.L1Cache_Controller.FwdGetS::total           12                       (Unspecified)
system.caches.L1Cache_Controller.FwdGetM |           7     77.78%     77.78% |           2     22.22%    100.00% |           0      0.00%    100.00% |           0      0.00%    100.00% (Unspecified)
system.caches.L1Cache_Controller.FwdGetM::total            9                       (Unspecified)
system.caches.L1Cache_Controller.Inv     |          14     73.68%     73.68% |           5     26.32%    100.00% |           0      0.00%    100.00% |           0      0.00%    100.00% (Unspecified)
system.caches.L1Cache_Controller.Inv::total           19                       (Unspecified)
system.caches.L1Cache_Controller.PutAck  |        6267     67.21%     67.21% |        3058     32.79%    100.00% |           0      0.00%    100.00% |           0      0.00%    100.00% (Unspecified)
system.caches.L1Cache_Controller.PutAck::total         9325                       (Unspecified)
system.caches.L1Cache_Controller.DataDirNoAcks |        6693     66.33%     66.33% |        3397     33.67%    100.00% |           0      0.00%    100.00% |           0      0.00%    100.00% (Unspecified)
system.caches.L1Cache_Controller.DataDirNoAcks::total        10090                       (Unspecified)
system.caches.L1Cache_Controller.DataOwner |           4     19.05%     19.05% |          17     80.95%    100.00% |           0      0.00%    100.00% |           0      0.00%    100.00% (Unspecified)
system.caches.L1Cache_Controller.DataOwner::total           21                       (Unspecified)
system.caches.L1Cache_Controller.InvAck  |           5     26.32%     26.32% |          14     73.68%    100.00% |           0      0.00%    100.00% |           0      0.00%    100.00% (Unspecified)
system.caches.L1Cache_Controller.InvAck::total           19                       (Unspecified)
system.caches.L1Cache_Controller.I.Load  |        5689     64.99%     64.99% |        3065     35.01%    100.00% |           0      0.00%    100.00% |           0      0.00%    100.00% (Unspecified)
system.caches.L1Cache_Controller.I.Load::total         8754                       (Unspecified)
system.caches.L1Cache_Controller.I.Store |         855     77.38%     77.38% |         250     22.62%    100.00% |           0      0.00%    100.00% |           0      0.00%    100.00% (Unspecified)
system.caches.L1Cache_Controller.I.Store::total         1105                       (Unspecified)
system.caches.L1Cache_Controller.IS_D.DataDirNoAcks |        5687     65.05%     65.05% |        3055     34.95%    100.00% |           0      0.00%    100.00% |           0      0.00%    100.00% (Unspecified)
system.caches.L1Cache_Controller.IS_D.DataDirNoAcks::total         8742                       (Unspecified)
system.caches.L1Cache_Controller.IS_D.DataOwner |           2     16.67%     16.67% |          10     83.33%    100.00% |           0      0.00%    100.00% |           0      0.00%    100.00% (Unspecified)
system.caches.L1Cache_Controller.IS_D.DataOwner::total           12                       (Unspecified)
system.caches.L1Cache_Controller.IM_AD.DataDirNoAcks |         853     77.83%     77.83% |         243     22.17%    100.00% |           0      0.00%    100.00% |           0      0.00%    100.00% (Unspecified)
system.caches.L1Cache_Controller.IM_AD.DataDirNoAcks::total         1096                       (Unspecified)
system.caches.L1Cache_Controller.IM_AD.DataOwner |           2     22.22%     22.22% |           7     77.78%    100.00% |           0      0.00%    100.00% |           0      0.00%    100.00% (Unspecified)
system.caches.L1Cache_Controller.IM_AD.DataOwner::total            9                       (Unspecified)
system.caches.L1Cache_Controller.IM_AD.InvAck |           2     50.00%     50.00% |           2     50.00%    100.00% |           0      0.00%    100.00% |           0      0.00%    100.00% (Unspecified)
system.caches.L1Cache_Controller.IM_AD.InvAck::total            4                       (Unspecified)
system.caches.L1Cache_Controller.S.Load  |      325278     21.95%     21.95% |     1156446     78.05%    100.00% |           0      0.00%    100.00% |           0      0.00%    100.00% (Unspecified)
system.caches.L1Cache_Controller.S.Load::total      1481724                       (Unspecified)
system.caches.L1Cache_Controller.S.Store |         153     60.71%     60.71% |          99     39.29%    100.00% |           0      0.00%    100.00% |           0      0.00%    100.00% (Unspecified)
system.caches.L1Cache_Controller.S.Store::total          252                       (Unspecified)
system.caches.L1Cache_Controller.S.Replacement |        5318     65.89%     65.89% |        2753     34.11%    100.00% |           0      0.00%    100.00% |           0      0.00%    100.00% (Unspecified)
system.caches.L1Cache_Controller.S.Replacement::total         8071                       (Unspecified)
system.caches.L1Cache_Controller.S.Inv   |          14     73.68%     73.68% |           5     26.32%    100.00% |           0      0.00%    100.00% |           0      0.00%    100.00% (Unspecified)
system.caches.L1Cache_Controller.S.Inv::total           19                       (Unspecified)
system.caches.L1Cache_Controller.SM_AD.DataDirNoAcks |         153     60.71%     60.71% |          99     39.29%    100.00% |           0      0.00%    100.00% |           0      0.00%    100.00% (Unspecified)
system.caches.L1Cache_Controller.SM_AD.DataDirNoAcks::total          252                       (Unspecified)
system.caches.L1Cache_Controller.SM_AD.InvAck |           3     20.00%     20.00% |          12     80.00%    100.00% |           0      0.00%    100.00% |           0      0.00%    100.00% (Unspecified)
system.caches.L1Cache_Controller.SM_AD.InvAck::total           15                       (Unspecified)
system.caches.L1Cache_Controller.M.Load  |       18797      8.20%      8.20% |      210515     91.80%    100.00% |           0      0.00%    100.00% |           0      0.00%    100.00% (Unspecified)
system.caches.L1Cache_Controller.M.Load::total       229312                       (Unspecified)
system.caches.L1Cache_Controller.M.Store |       21287     14.42%     14.42% |      126286     85.58%    100.00% |           0      0.00%    100.00% |           0      0.00%    100.00% (Unspecified)
system.caches.L1Cache_Controller.M.Store::total       147573                       (Unspecified)
system.caches.L1Cache_Controller.M.Replacement |         949     75.68%     75.68% |         305     24.32%    100.00% |           0      0.00%    100.00% |           0      0.00%    100.00% (Unspecified)
system.caches.L1Cache_Controller.M.Replacement::total         1254                       (Unspecified)
system.caches.L1Cache_Controller.M.FwdGetS |          10     83.33%     83.33% |           2     16.67%    100.00% |           0      0.00%    100.00% |           0      0.00%    100.00% (Unspecified)
system.caches.L1Cache_Controller.M.FwdGetS::total           12                       (Unspecified)
system.caches.L1Cache_Controller.M.FwdGetM |           7     77.78%     77.78% |           2     22.22%    100.00% |           0      0.00%    100.00% |           0      0.00%    100.00% (Unspecified)
system.caches.L1Cache_Controller.M.FwdGetM::total            9                       (Unspecified)
system.caches.L1Cache_Controller.MI_A.Replacement |      302730     75.68%     75.68% |       97294     24.32%    100.00% |           0      0.00%    100.00% |           0      0.00%    100.00% (Unspecified)
system.caches.L1Cache_Controller.MI_A.Replacement::total       400024                       (Unspecified)
system.caches.L1Cache_Controller.MI_A.PutAck |         949     75.68%     75.68% |         305     24.32%    100.00% |           0      0.00%    100.00% |           0      0.00%    100.00% (Unspecified)
system.caches.L1Cache_Controller.MI_A.PutAck::total         1254                       (Unspecified)
system.caches.L1Cache_Controller.SI_A.Replacement |     1696439     65.89%     65.89% |      878203     34.11%    100.00% |           0      0.00%    100.00% |           0      0.00%    100.00% (Unspecified)
system.caches.L1Cache_Controller.SI_A.Replacement::total      2574642                       (Unspecified)
system.caches.L1Cache_Controller.SI_A.PutAck |        5318     65.89%     65.89% |        2753     34.11%    100.00% |           0      0.00%    100.00% |           0      0.00%    100.00% (Unspecified)
system.caches.L1Cache_Controller.SI_A.PutAck::total         8071                       (Unspecified)
system.caches.Directory_Controller.GetS          8754      0.00%      0.00% (Unspecified)
system.caches.Directory_Controller.GetM          1357      0.00%      0.00% (Unspecified)
system.caches.Directory_Controller.PutSNotLast          551      0.00%      0.00% (Unspecified)
system.caches.Directory_Controller.PutSLast         7520      0.00%      0.00% (Unspecified)
system.caches.Directory_Controller.PutMOwner         1254      0.00%      0.00% (Unspecified)
system.caches.Directory_Controller.Data            12      0.00%      0.00% (Unspecified)
system.caches.Directory_Controller.MemData        10090      0.00%      0.00% (Unspecified)
system.caches.Directory_Controller.MemAck         1266      0.00%      0.00% (Unspecified)
system.caches.Directory_Controller.I.GetS         8164      0.00%      0.00% (Unspecified)
system.caches.Directory_Controller.I.GetM         1092      0.00%      0.00% (Unspecified)
system.caches.Directory_Controller.S.GetS          578      0.00%      0.00% (Unspecified)
system.caches.Directory_Controller.S.GetM          256      0.00%      0.00% (Unspecified)
system.caches.Directory_Controller.S.PutSNotLast          551      0.00%      0.00% (Unspecified)
system.caches.Directory_Controller.S.PutSLast         7520      0.00%      0.00% (Unspecified)
system.caches.Directory_Controller.M.GetS           12      0.00%      0.00% (Unspecified)
system.caches.Directory_Controller.M.GetM            9      0.00%      0.00% (Unspecified)
system.caches.Directory_Controller.M.PutMOwner         1254      0.00%      0.00% (Unspecified)
system.caches.Directory_Controller.S_D.Data           12      0.00%      0.00% (Unspecified)
system.caches.Directory_Controller.S_m.MemData         8742      0.00%      0.00% (Unspecified)
system.caches.Directory_Controller.M_m.MemData         1348      0.00%      0.00% (Unspecified)
system.caches.Directory_Controller.MI_m.MemAck         1254      0.00%      0.00% (Unspecified)
system.caches.Directory_Controller.SS_m.MemAck           12      0.00%      0.00% (Unspecified)
system.caches.MachineType.L1Cache.miss_mach_latency_hist_seqr::bucket_size            4                       (Unspecified)
system.caches.MachineType.L1Cache.miss_mach_latency_hist_seqr::max_bucket           39                       (Unspecified)
system.caches.MachineType.L1Cache.miss_mach_latency_hist_seqr::samples           21                       (Unspecified)
system.caches.MachineType.L1Cache.miss_mach_latency_hist_seqr::mean    18.857143                       (Unspecified)
system.caches.MachineType.L1Cache.miss_mach_latency_hist_seqr::gmean    18.380774                       (Unspecified)
system.caches.MachineType.L1Cache.miss_mach_latency_hist_seqr::stdev     4.629100                       (Unspecified)
system.caches.MachineType.L1Cache.miss_mach_latency_hist_seqr |           0      0.00%      0.00% |           0      0.00%      0.00% |           0      0.00%      0.00% |           0      0.00%      0.00% |          15     71.43%     71.43% |           0      0.00%     71.43% |           6     28.57%    100.00% |           0      0.00%    100.00% |           0      0.00%    100.00% |           0      0.00%    100.00% (Unspecified)
system.caches.MachineType.L1Cache.miss_mach_latency_hist_seqr::total           21                       (Unspecified)
system.caches.MachineType.L1Cache.incomplete_times_seqr           21                       (Unspecified)
system.caches.MachineType.Directory.miss_mach_latency_hist_seqr::bucket_size           64                      
system.caches.MachineType.Directory.miss_mach_latency_hist_seqr::max_bucket          639                      
system.caches.MachineType.Directory.miss_mach_latency_hist_seqr::samples        10090                      
system.caches.MachineType.Directory.miss_mach_latency_hist_seqr::mean    69.872052                      
system.caches.MachineType.Directory.miss_mach_latency_hist_seqr::gmean    66.413745                      
system.caches.MachineType.Directory.miss_mach_latency_hist_seqr::stdev    31.480465                      
system.caches.MachineType.Directory.miss_mach_latency_hist_seqr |        7082     70.19%     70.19% |        2763     27.38%     97.57% |          88      0.87%     98.44% |          41      0.41%     98.85% |          70      0.69%     99.54% |          46      0.46%    100.00% |           0      0.00%    100.00% |           0      0.00%    100.00% |           0      0.00%    100.00% |           0      0.00%    100.00% (Unspecified)
system.caches.MachineType.Directory.miss_mach_latency_hist_seqr::total        10090                      
system.caches.MachineType.Directory.miss_latency_hist_seqr.issue_to_initial_request::bucket_size            1                      
system.caches.MachineType.Directory.miss_latency_hist_seqr.issue_to_initial_request::max_bucket            9                      
system.caches.MachineType.Directory.miss_latency_hist_seqr.issue_to_initial_request::samples            1                      
system.caches.MachineType.Directory.miss_latency_hist_seqr.issue_to_initial_request::stdev          nan                      
system.caches.MachineType.Directory.miss_latency_hist_seqr.issue_to_initial_request |           1    100.00%    100.00% |           0      0.00%    100.00% |           0      0.00%    100.00% |           0      0.00%    100.00% |           0      0.00%    100.00% |           0      0.00%    100.00% |           0      0.00%    100.00% |           0      0.00%    100.00% |           0      0.00%    100.00% |           0      0.00%    100.00% (Unspecified)
system.caches.MachineType.Directory.miss_latency_hist_seqr.issue_to_initial_request::total            1                      
system.caches.MachineType.Directory.miss_latency_hist_seqr.initial_to_forward::bucket_size            1                      
system.caches.MachineType.Directory.miss_latency_hist_seqr.initial_to_forward::max_bucket            9                      
system.caches.MachineType.Directory.miss_latency_hist_seqr.initial_to_forward::samples            1                      
system.caches.MachineType.Directory.miss_latency_hist_seqr.initial_to_forward::stdev          nan                      
system.caches.MachineType.Directory.miss_latency_hist_seqr.initial_to_forward |           1    100.00%    100.00% |           0      0.00%    100.00% |           0      0.00%    100.00% |           0      0.00%    100.00% |           0      0.00%    100.00% |           0      0.00%    100.00% |           0      0.00%    100.00% |           0      0.00%    100.00% |           0      0.00%    100.00% |           0      0.00%    100.00% (Unspecified)
system.caches.MachineType.Directory.miss_latency_hist_seqr.initial_to_forward::total            1                      
system.caches.MachineType.Directory.miss_latency_hist_seqr.forward_to_first_response::bucket_size            1                      
system.caches.MachineType.Directory.miss_latency_hist_seqr.forward_to_first_response::max_bucket            9                      
system.caches.MachineType.Directory.miss_latency_hist_seqr.forward_to_first_response::samples            1                      
system.caches.MachineType.Directory.miss_latency_hist_seqr.forward_to_first_response::stdev          nan                      
system.caches.MachineType.Directory.miss_latency_hist_seqr.forward_to_first_response |           1    100.00%    100.00% |           0      0.00%    100.00% |           0      0.00%    100.00% |           0      0.00%    100.00% |           0      0.00%    100.00% |           0      0.00%    100.00% |           0      0.00%    100.00% |           0      0.00%    100.00% |           0      0.00%    100.00% |           0      0.00%    100.00% (Unspecified)
system.caches.MachineType.Directory.miss_latency_hist_seqr.forward_to_first_response::total            1                      
system.caches.MachineType.Directory.miss_latency_hist_seqr.first_response_to_completion::bucket_size            8                      
system.caches.MachineType.Directory.miss_latency_hist_seqr.first_response_to_completion::max_bucket           79                      
system.caches.MachineType.Directory.miss_latency_hist_seqr.first_response_to_completion::samples            1                      
system.caches.MachineType.Directory.miss_latency_hist_seqr.first_response_to_completion::mean           73                      
system.caches.MachineType.Directory.miss_latency_hist_seqr.first_response_to_completion::gmean    73.000000                      
system.caches.MachineType.Directory.miss_latency_hist_seqr.first_response_to_completion::stdev          nan                      
system.caches.MachineType.Directory.miss_latency_hist_seqr.first_response_to_completion |           0      0.00%      0.00% |           0      0.00%      0.00% |           0      0.00%      0.00% |           0      0.00%      0.00% |           0      0.00%      0.00% |           0      0.00%      0.00% |           0      0.00%      0.00% |           0      0.00%      0.00% |           0      0.00%      0.00% |           1    100.00%    100.00% (Unspecified)
system.caches.MachineType.Directory.miss_latency_hist_seqr.first_response_to_completion::total            1                      
system.caches.MachineType.Directory.incomplete_times_seqr        10089                       (Unspecified)
system.caches.RequestType.LD.latency_hist_seqr::bucket_size           64                       (Unspecified)
system.caches.RequestType.LD.latency_hist_seqr::max_bucket          639                       (Unspecified)
system.caches.RequestType.LD.latency_hist_seqr::samples       282079                       (Unspecified)
system.caches.RequestType.LD.latency_hist_seqr::mean     2.229808                       (Unspecified)
system.caches.RequestType.LD.latency_hist_seqr::gmean     1.076318                       (Unspecified)
system.caches.RequestType.LD.latency_hist_seqr::stdev    10.205607                       (Unspecified)
system.caches.RequestType.LD.latency_hist_seqr |      280394     99.40%     99.40% |        1547      0.55%     99.95% |          52      0.02%     99.97% |          25      0.01%     99.98% |          37      0.01%     99.99% |          24      0.01%    100.00% |           0      0.00%    100.00% |           0      0.00%    100.00% |           0      0.00%    100.00% |           0      0.00%    100.00% (Unspecified)
system.caches.RequestType.LD.latency_hist_seqr::total       282079                       (Unspecified)
system.caches.RequestType.LD.hit_latency_hist_seqr::bucket_size            1                       (Unspecified)
system.caches.RequestType.LD.hit_latency_hist_seqr::max_bucket            9                       (Unspecified)
system.caches.RequestType.LD.hit_latency_hist_seqr::samples       277156                       (Unspecified)
system.caches.RequestType.LD.hit_latency_hist_seqr::mean            1                       (Unspecified)
system.caches.RequestType.LD.hit_latency_hist_seqr::gmean            1                       (Unspecified)
system.caches.RequestType.LD.hit_latency_hist_seqr |           0      0.00%      0.00% |      277156    100.00%    100.00% |           0      0.00%    100.00% |           0      0.00%    100.00% |           0      0.00%    100.00% |           0      0.00%    100.00% |           0      0.00%    100.00% |           0      0.00%    100.00% |           0      0.00%    100.00% |           0      0.00%    100.00% (Unspecified)
system.caches.RequestType.LD.hit_latency_hist_seqr::total       277156                       (Unspecified)
system.caches.RequestType.LD.miss_latency_hist_seqr::bucket_size           64                       (Unspecified)
system.caches.RequestType.LD.miss_latency_hist_seqr::max_bucket          639                       (Unspecified)
system.caches.RequestType.LD.miss_latency_hist_seqr::samples         4923                       (Unspecified)
system.caches.RequestType.LD.miss_latency_hist_seqr::mean    71.465773                       (Unspecified)
system.caches.RequestType.LD.miss_latency_hist_seqr::gmean    67.628308                       (Unspecified)
system.caches.RequestType.LD.miss_latency_hist_seqr::stdev    33.004448                       (Unspecified)
system.caches.RequestType.LD.miss_latency_hist_seqr |        3238     65.77%     65.77% |        1547     31.42%     97.20% |          52      1.06%     98.25% |          25      0.51%     98.76% |          37      0.75%     99.51% |          24      0.49%    100.00% |           0      0.00%    100.00% |           0      0.00%    100.00% |           0      0.00%    100.00% |           0      0.00%    100.00% (Unspecified)
system.caches.RequestType.LD.miss_latency_hist_seqr::total         4923                       (Unspecified)
system.caches.RequestType.ST.latency_hist_seqr::bucket_size           64                       (Unspecified)
system.caches.RequestType.ST.latency_hist_seqr::max_bucket          639                       (Unspecified)
system.caches.RequestType.ST.latency_hist_seqr::samples       141870                       (Unspecified)
system.caches.RequestType.ST.latency_hist_seqr::mean     1.552421                       (Unspecified)
system.caches.RequestType.ST.latency_hist_seqr::gmean     1.036510                       (Unspecified)
system.caches.RequestType.ST.latency_hist_seqr::stdev     6.660388                       (Unspecified)
system.caches.RequestType.ST.latency_hist_seqr |      141628     99.83%     99.83% |         211      0.15%     99.98% |          12      0.01%     99.99% |           4      0.00%     99.99% |           8      0.01%    100.00% |           7      0.00%    100.00% |           0      0.00%    100.00% |           0      0.00%    100.00% |           0      0.00%    100.00% |           0      0.00%    100.00% (Unspecified)
system.caches.RequestType.ST.latency_hist_seqr::total       141870                       (Unspecified)
system.caches.RequestType.ST.hit_latency_hist_seqr::bucket_size            1                       (Unspecified)
system.caches.RequestType.ST.hit_latency_hist_seqr::max_bucket            9                       (Unspecified)
system.caches.RequestType.ST.hit_latency_hist_seqr::samples       140623                       (Unspecified)
system.caches.RequestType.ST.hit_latency_hist_seqr::mean            1                       (Unspecified)
system.caches.RequestType.ST.hit_latency_hist_seqr::gmean            1                       (Unspecified)
system.caches.RequestType.ST.hit_latency_hist_seqr |           0      0.00%      0.00% |      140623    100.00%    100.00% |           0      0.00%    100.00% |           0      0.00%    100.00% |           0      0.00%    100.00% |           0      0.00%    100.00% |           0      0.00%    100.00% |           0      0.00%    100.00% |           0      0.00%    100.00% |           0      0.00%    100.00% (Unspecified)
system.caches.RequestType.ST.hit_latency_hist_seqr::total       140623                       (Unspecified)
system.caches.RequestType.ST.miss_latency_hist_seqr::bucket_size           64                       (Unspecified)
system.caches.RequestType.ST.miss_latency_hist_seqr::max_bucket          639                       (Unspecified)
system.caches.RequestType.ST.miss_latency_hist_seqr::samples         1247                       (Unspecified)
system.caches.RequestType.ST.miss_latency_hist_seqr::mean    63.848436                       (Unspecified)
system.caches.RequestType.ST.miss_latency_hist_seqr::gmean    59.129432                       (Unspecified)
system.caches.RequestType.ST.miss_latency_hist_seqr::stdev    33.653345                       (Unspecified)
system.caches.RequestType.ST.miss_latency_hist_seqr |        1005     80.59%     80.59% |         211     16.92%     97.51% |          12      0.96%     98.48% |           4      0.32%     98.80% |           8      0.64%     99.44% |           7      0.56%    100.00% |           0      0.00%    100.00% |           0      0.00%    100.00% |           0      0.00%    100.00% |           0      0.00%    100.00% (Unspecified)
system.caches.RequestType.ST.miss_latency_hist_seqr::total         1247                       (Unspecified)
system.caches.RequestType.IFETCH.latency_hist_seqr::bucket_size           64                       (Unspecified)
system.caches.RequestType.IFETCH.latency_hist_seqr::max_bucket          639                       (Unspecified)
system.caches.RequestType.IFETCH.latency_hist_seqr::samples      1437711                       (Unspecified)
system.caches.RequestType.IFETCH.latency_hist_seqr::mean     1.183835                       (Unspecified)
system.caches.RequestType.IFETCH.latency_hist_seqr::gmean     1.011286                       (Unspecified)
system.caches.RequestType.IFETCH.latency_hist_seqr::stdev     3.853078                       (Unspecified)
system.caches.RequestType.IFETCH.latency_hist_seqr |     1436652     99.93%     99.93% |         983      0.07%     99.99% |          24      0.00%    100.00% |          12      0.00%    100.00% |          25      0.00%    100.00% |          15      0.00%    100.00% |           0      0.00%    100.00% |           0      0.00%    100.00% |           0      0.00%    100.00% |           0      0.00%    100.00% (Unspecified)
system.caches.RequestType.IFETCH.latency_hist_seqr::total      1437711                       (Unspecified)
system.caches.RequestType.IFETCH.hit_latency_hist_seqr::bucket_size            1                       (Unspecified)
system.caches.RequestType.IFETCH.hit_latency_hist_seqr::max_bucket            9                       (Unspecified)
system.caches.RequestType.IFETCH.hit_latency_hist_seqr::samples      1433880                       (Unspecified)
system.caches.RequestType.IFETCH.hit_latency_hist_seqr::mean            1                       (Unspecified)
system.caches.RequestType.IFETCH.hit_latency_hist_seqr::gmean            1                       (Unspecified)
system.caches.RequestType.IFETCH.hit_latency_hist_seqr |           0      0.00%      0.00% |     1433880    100.00%    100.00% |           0      0.00%    100.00% |           0      0.00%    100.00% |           0      0.00%    100.00% |           0      0.00%    100.00% |           0      0.00%    100.00% |           0      0.00%    100.00% |           0      0.00%    100.00% |           0      0.00%    100.00% (Unspecified)
system.caches.RequestType.IFETCH.hit_latency_hist_seqr::total      1433880                       (Unspecified)
system.caches.RequestType.IFETCH.miss_latency_hist_seqr::bucket_size           64                       (Unspecified)
system.caches.RequestType.IFETCH.miss_latency_hist_seqr::max_bucket          639                       (Unspecified)
system.caches.RequestType.IFETCH.miss_latency_hist_seqr::samples         3831                       (Unspecified)
system.caches.RequestType.IFETCH.miss_latency_hist_seqr::mean    69.990342                       (Unspecified)
system.caches.RequestType.IFETCH.miss_latency_hist_seqr::gmean    67.481166                       (Unspecified)
system.caches.RequestType.IFETCH.miss_latency_hist_seqr::stdev    28.718716                       (Unspecified)
system.caches.RequestType.IFETCH.miss_latency_hist_seqr |        2772     72.36%     72.36% |         983     25.66%     98.02% |          24      0.63%     98.64% |          12      0.31%     98.96% |          25      0.65%     99.61% |          15      0.39%    100.00% |           0      0.00%    100.00% |           0      0.00%    100.00% |           0      0.00%    100.00% |           0      0.00%    100.00% (Unspecified)
system.caches.RequestType.IFETCH.miss_latency_hist_seqr::total         3831                       (Unspecified)
system.caches.RequestType.RMW_Read.latency_hist_seqr::bucket_size           16                       (Unspecified)
system.caches.RequestType.RMW_Read.latency_hist_seqr::max_bucket          159                       (Unspecified)
system.caches.RequestType.RMW_Read.latency_hist_seqr::samples         6298                       (Unspecified)
system.caches.RequestType.RMW_Read.latency_hist_seqr::mean     1.659574                       (Unspecified)
system.caches.RequestType.RMW_Read.latency_hist_seqr::gmean     1.049079                       (Unspecified)
system.caches.RequestType.RMW_Read.latency_hist_seqr::stdev     6.205472                       (Unspecified)
system.caches.RequestType.RMW_Read.latency_hist_seqr |        6222     98.79%     98.79% |           5      0.08%     98.87% |           8      0.13%     99.00% |          48      0.76%     99.76% |          12      0.19%     99.95% |           3      0.05%    100.00% |           0      0.00%    100.00% |           0      0.00%    100.00% |           0      0.00%    100.00% |           0      0.00%    100.00% (Unspecified)
system.caches.RequestType.RMW_Read.latency_hist_seqr::total         6298                       (Unspecified)
system.caches.RequestType.RMW_Read.hit_latency_hist_seqr::bucket_size            1                       (Unspecified)
system.caches.RequestType.RMW_Read.hit_latency_hist_seqr::max_bucket            9                       (Unspecified)
system.caches.RequestType.RMW_Read.hit_latency_hist_seqr::samples         6222                       (Unspecified)
system.caches.RequestType.RMW_Read.hit_latency_hist_seqr::mean            1                       (Unspecified)
system.caches.RequestType.RMW_Read.hit_latency_hist_seqr::gmean            1                       (Unspecified)
system.caches.RequestType.RMW_Read.hit_latency_hist_seqr |           0      0.00%      0.00% |        6222    100.00%    100.00% |           0      0.00%    100.00% |           0      0.00%    100.00% |           0      0.00%    100.00% |           0      0.00%    100.00% |           0      0.00%    100.00% |           0      0.00%    100.00% |           0      0.00%    100.00% |           0      0.00%    100.00% (Unspecified)
system.caches.RequestType.RMW_Read.hit_latency_hist_seqr::total         6222                       (Unspecified)
system.caches.RequestType.RMW_Read.miss_latency_hist_seqr::bucket_size           16                       (Unspecified)
system.caches.RequestType.RMW_Read.miss_latency_hist_seqr::max_bucket          159                       (Unspecified)
system.caches.RequestType.RMW_Read.miss_latency_hist_seqr::samples           76                       (Unspecified)
system.caches.RequestType.RMW_Read.miss_latency_hist_seqr::mean    55.657895                       (Unspecified)
system.caches.RequestType.RMW_Read.miss_latency_hist_seqr::gmean    53.008690                       (Unspecified)
system.caches.RequestType.RMW_Read.miss_latency_hist_seqr::stdev    15.567104                       (Unspecified)
system.caches.RequestType.RMW_Read.miss_latency_hist_seqr |           0      0.00%      0.00% |           5      6.58%      6.58% |           8     10.53%     17.11% |          48     63.16%     80.26% |          12     15.79%     96.05% |           3      3.95%    100.00% |           0      0.00%    100.00% |           0      0.00%    100.00% |           0      0.00%    100.00% |           0      0.00%    100.00% (Unspecified)
system.caches.RequestType.RMW_Read.miss_latency_hist_seqr::total           76                       (Unspecified)
system.caches.RequestType.Locked_RMW_Read.latency_hist_seqr::bucket_size           16                       (Unspecified)
system.caches.RequestType.Locked_RMW_Read.latency_hist_seqr::max_bucket          159                       (Unspecified)
system.caches.RequestType.Locked_RMW_Read.latency_hist_seqr::samples          381                       (Unspecified)
system.caches.RequestType.Locked_RMW_Read.latency_hist_seqr::mean     5.102362                       (Unspecified)
system.caches.RequestType.Locked_RMW_Read.latency_hist_seqr::gmean     1.397033                       (Unspecified)
system.caches.RequestType.Locked_RMW_Read.latency_hist_seqr::stdev    14.349675                       (Unspecified)
system.caches.RequestType.Locked_RMW_Read.latency_hist_seqr |         347     91.08%     91.08% |           9      2.36%     93.44% |           4      1.05%     94.49% |          14      3.67%     98.16% |           6      1.57%     99.74% |           1      0.26%    100.00% |           0      0.00%    100.00% |           0      0.00%    100.00% |           0      0.00%    100.00% |           0      0.00%    100.00% (Unspecified)
system.caches.RequestType.Locked_RMW_Read.latency_hist_seqr::total          381                       (Unspecified)
system.caches.RequestType.Locked_RMW_Read.hit_latency_hist_seqr::bucket_size            1                       (Unspecified)
system.caches.RequestType.Locked_RMW_Read.hit_latency_hist_seqr::max_bucket            9                       (Unspecified)
system.caches.RequestType.Locked_RMW_Read.hit_latency_hist_seqr::samples          347                       (Unspecified)
system.caches.RequestType.Locked_RMW_Read.hit_latency_hist_seqr::mean            1                       (Unspecified)
system.caches.RequestType.Locked_RMW_Read.hit_latency_hist_seqr::gmean            1                       (Unspecified)
system.caches.RequestType.Locked_RMW_Read.hit_latency_hist_seqr |           0      0.00%      0.00% |         347    100.00%    100.00% |           0      0.00%    100.00% |           0      0.00%    100.00% |           0      0.00%    100.00% |           0      0.00%    100.00% |           0      0.00%    100.00% |           0      0.00%    100.00% |           0      0.00%    100.00% |           0      0.00%    100.00% (Unspecified)
system.caches.RequestType.Locked_RMW_Read.hit_latency_hist_seqr::total          347                       (Unspecified)
system.caches.RequestType.Locked_RMW_Read.miss_latency_hist_seqr::bucket_size           16                       (Unspecified)
system.caches.RequestType.Locked_RMW_Read.miss_latency_hist_seqr::max_bucket          159                       (Unspecified)
system.caches.RequestType.Locked_RMW_Read.miss_latency_hist_seqr::samples           34                       (Unspecified)
system.caches.RequestType.Locked_RMW_Read.miss_latency_hist_seqr::mean    46.970588                       (Unspecified)
system.caches.RequestType.Locked_RMW_Read.miss_latency_hist_seqr::gmean    42.380928                       (Unspecified)
system.caches.RequestType.Locked_RMW_Read.miss_latency_hist_seqr::stdev    19.700000                       (Unspecified)
system.caches.RequestType.Locked_RMW_Read.miss_latency_hist_seqr |           0      0.00%      0.00% |           9     26.47%     26.47% |           4     11.76%     38.24% |          14     41.18%     79.41% |           6     17.65%     97.06% |           1      2.94%    100.00% |           0      0.00%    100.00% |           0      0.00%    100.00% |           0      0.00%    100.00% |           0      0.00%    100.00% (Unspecified)
system.caches.RequestType.Locked_RMW_Read.miss_latency_hist_seqr::total           34                       (Unspecified)
system.caches.RequestType.Locked_RMW_Write.latency_hist_seqr::bucket_size            1                       (Unspecified)
system.caches.RequestType.Locked_RMW_Write.latency_hist_seqr::max_bucket            9                       (Unspecified)
system.caches.RequestType.Locked_RMW_Write.latency_hist_seqr::samples          381                       (Unspecified)
system.caches.RequestType.Locked_RMW_Write.latency_hist_seqr::mean            1                       (Unspecified)
system.caches.RequestType.Locked_RMW_Write.latency_hist_seqr::gmean            1                       (Unspecified)
system.caches.RequestType.Locked_RMW_Write.latency_hist_seqr |           0      0.00%      0.00% |         381    100.00%    100.00% |           0      0.00%    100.00% |           0      0.00%    100.00% |           0      0.00%    100.00% |           0      0.00%    100.00% |           0      0.00%    100.00% |           0      0.00%    100.00% |           0      0.00%    100.00% |           0      0.00%    100.00% (Unspecified)
system.caches.RequestType.Locked_RMW_Write.latency_hist_seqr::total          381                       (Unspecified)
system.caches.RequestType.Locked_RMW_Write.hit_latency_hist_seqr::bucket_size            1                       (Unspecified)
system.caches.RequestType.Locked_RMW_Write.hit_latency_hist_seqr::max_bucket            9                       (Unspecified)
system.caches.RequestType.Locked_RMW_Write.hit_latency_hist_seqr::samples          381                       (Unspecified)
system.caches.RequestType.Locked_RMW_Write.hit_latency_hist_seqr::mean            1                       (Unspecified)
system.caches.RequestType.Locked_RMW_Write.hit_latency_hist_seqr::gmean            1                       (Unspecified)
system.caches.RequestType.Locked_RMW_Write.hit_latency_hist_seqr |           0      0.00%      0.00% |         381    100.00%    100.00% |           0      0.00%    100.00% |           0      0.00%    100.00% |           0      0.00%    100.00% |           0      0.00%    100.00% |           0      0.00%    100.00% |           0      0.00%    100.00% |           0      0.00%    100.00% |           0      0.00%    100.00% (Unspecified)
system.caches.RequestType.Locked_RMW_Write.hit_latency_hist_seqr::total          381                       (Unspecified)
system.caches.RequestTypeMachineType.LD.L1Cache.miss_type_mach_latency_hist_seqr::bucket_size            4                       (Unspecified)
system.caches.RequestTypeMachineType.LD.L1Cache.miss_type_mach_latency_hist_seqr::max_bucket           39                       (Unspecified)
system.caches.RequestTypeMachineType.LD.L1Cache.miss_type_mach_latency_hist_seqr::samples           12                       (Unspecified)
system.caches.RequestTypeMachineType.LD.L1Cache.miss_type_mach_latency_hist_seqr::mean    20.166667                       (Unspecified)
system.caches.RequestTypeMachineType.LD.L1Cache.miss_type_mach_latency_hist_seqr::gmean    19.587344                       (Unspecified)
system.caches.RequestTypeMachineType.LD.L1Cache.miss_type_mach_latency_hist_seqr::stdev     5.149287                       (Unspecified)
system.caches.RequestTypeMachineType.LD.L1Cache.miss_type_mach_latency_hist_seqr |           0      0.00%      0.00% |           0      0.00%      0.00% |           0      0.00%      0.00% |           0      0.00%      0.00% |           7     58.33%     58.33% |           0      0.00%     58.33% |           5     41.67%    100.00% |           0      0.00%    100.00% |           0      0.00%    100.00% |           0      0.00%    100.00% (Unspecified)
system.caches.RequestTypeMachineType.LD.L1Cache.miss_type_mach_latency_hist_seqr::total           12                       (Unspecified)
system.caches.RequestTypeMachineType.LD.Directory.miss_type_mach_latency_hist_seqr::bucket_size           64                       (Unspecified)
system.caches.RequestTypeMachineType.LD.Directory.miss_type_mach_latency_hist_seqr::max_bucket          639                       (Unspecified)
system.caches.RequestTypeMachineType.LD.Directory.miss_type_mach_latency_hist_seqr::samples         4911                       (Unspecified)
system.caches.RequestTypeMachineType.LD.Directory.miss_type_mach_latency_hist_seqr::mean    71.591122                       (Unspecified)
system.caches.RequestTypeMachineType.LD.Directory.miss_type_mach_latency_hist_seqr::gmean    67.833386                       (Unspecified)
system.caches.RequestTypeMachineType.LD.Directory.miss_type_mach_latency_hist_seqr::stdev    32.946154                       (Unspecified)
system.caches.RequestTypeMachineType.LD.Directory.miss_type_mach_latency_hist_seqr |        3226     65.69%     65.69% |        1547     31.50%     97.19% |          52      1.06%     98.25% |          25      0.51%     98.76% |          37      0.75%     99.51% |          24      0.49%    100.00% |           0      0.00%    100.00% |           0      0.00%    100.00% |           0      0.00%    100.00% |           0      0.00%    100.00% (Unspecified)
system.caches.RequestTypeMachineType.LD.Directory.miss_type_mach_latency_hist_seqr::total         4911                       (Unspecified)
system.caches.RequestTypeMachineType.ST.L1Cache.miss_type_mach_latency_hist_seqr::bucket_size            4                       (Unspecified)
system.caches.RequestTypeMachineType.ST.L1Cache.miss_type_mach_latency_hist_seqr::max_bucket           39                       (Unspecified)
system.caches.RequestTypeMachineType.ST.L1Cache.miss_type_mach_latency_hist_seqr::samples            6                       (Unspecified)
system.caches.RequestTypeMachineType.ST.L1Cache.miss_type_mach_latency_hist_seqr::mean    17.666667                       (Unspecified)
system.caches.RequestTypeMachineType.ST.L1Cache.miss_type_mach_latency_hist_seqr::gmean    17.348511                       (Unspecified)
system.caches.RequestTypeMachineType.ST.L1Cache.miss_type_mach_latency_hist_seqr::stdev     4.082483                       (Unspecified)
system.caches.RequestTypeMachineType.ST.L1Cache.miss_type_mach_latency_hist_seqr |           0      0.00%      0.00% |           0      0.00%      0.00% |           0      0.00%      0.00% |           0      0.00%      0.00% |           5     83.33%     83.33% |           0      0.00%     83.33% |           1     16.67%    100.00% |           0      0.00%    100.00% |           0      0.00%    100.00% |           0      0.00%    100.00% (Unspecified)
system.caches.RequestTypeMachineType.ST.L1Cache.miss_type_mach_latency_hist_seqr::total            6                       (Unspecified)
system.caches.RequestTypeMachineType.ST.Directory.miss_type_mach_latency_hist_seqr::bucket_size           64                       (Unspecified)
system.caches.RequestTypeMachineType.ST.Directory.miss_type_mach_latency_hist_seqr::max_bucket          639                       (Unspecified)
system.caches.RequestTypeMachineType.ST.Directory.miss_type_mach_latency_hist_seqr::samples         1241                       (Unspecified)
system.caches.RequestTypeMachineType.ST.Directory.miss_type_mach_latency_hist_seqr::mean    64.071716                       (Unspecified)
system.caches.RequestTypeMachineType.ST.Directory.miss_type_mach_latency_hist_seqr::gmean    59.481025                       (Unspecified)
system.caches.RequestTypeMachineType.ST.Directory.miss_type_mach_latency_hist_seqr::stdev    33.579619                       (Unspecified)
system.caches.RequestTypeMachineType.ST.Directory.miss_type_mach_latency_hist_seqr |         999     80.50%     80.50% |         211     17.00%     97.50% |          12      0.97%     98.47% |           4      0.32%     98.79% |           8      0.64%     99.44% |           7      0.56%    100.00% |           0      0.00%    100.00% |           0      0.00%    100.00% |           0      0.00%    100.00% |           0      0.00%    100.00% (Unspecified)
system.caches.RequestTypeMachineType.ST.Directory.miss_type_mach_latency_hist_seqr::total         1241                       (Unspecified)
system.caches.RequestTypeMachineType.IFETCH.Directory.miss_type_mach_latency_hist_seqr::bucket_size           64                       (Unspecified)
system.caches.RequestTypeMachineType.IFETCH.Directory.miss_type_mach_latency_hist_seqr::max_bucket          639                       (Unspecified)
system.caches.RequestTypeMachineType.IFETCH.Directory.miss_type_mach_latency_hist_seqr::samples         3831                       (Unspecified)
system.caches.RequestTypeMachineType.IFETCH.Directory.miss_type_mach_latency_hist_seqr::mean    69.990342                       (Unspecified)
system.caches.RequestTypeMachineType.IFETCH.Directory.miss_type_mach_latency_hist_seqr::gmean    67.481166                       (Unspecified)
system.caches.RequestTypeMachineType.IFETCH.Directory.miss_type_mach_latency_hist_seqr::stdev    28.718716                       (Unspecified)
system.caches.RequestTypeMachineType.IFETCH.Directory.miss_type_mach_latency_hist_seqr |        2772     72.36%     72.36% |         983     25.66%     98.02% |          24      0.63%     98.64% |          12      0.31%     98.96% |          25      0.65%     99.61% |          15      0.39%    100.00% |           0      0.00%    100.00% |           0      0.00%    100.00% |           0      0.00%    100.00% |           0      0.00%    100.00% (Unspecified)
system.caches.RequestTypeMachineType.IFETCH.Directory.miss_type_mach_latency_hist_seqr::total         3831                       (Unspecified)
system.caches.RequestTypeMachineType.RMW_Read.L1Cache.miss_type_mach_latency_hist_seqr::bucket_size            2                       (Unspecified)
system.caches.RequestTypeMachineType.RMW_Read.L1Cache.miss_type_mach_latency_hist_seqr::max_bucket           19                       (Unspecified)
system.caches.RequestTypeMachineType.RMW_Read.L1Cache.miss_type_mach_latency_hist_seqr::samples            1                       (Unspecified)
system.caches.RequestTypeMachineType.RMW_Read.L1Cache.miss_type_mach_latency_hist_seqr::mean           16                       (Unspecified)
system.caches.RequestTypeMachineType.RMW_Read.L1Cache.miss_type_mach_latency_hist_seqr::gmean    16.000000                       (Unspecified)
system.caches.RequestTypeMachineType.RMW_Read.L1Cache.miss_type_mach_latency_hist_seqr::stdev          nan                       (Unspecified)
system.caches.RequestTypeMachineType.RMW_Read.L1Cache.miss_type_mach_latency_hist_seqr |           0      0.00%      0.00% |           0      0.00%      0.00% |           0      0.00%      0.00% |           0      0.00%      0.00% |           0      0.00%      0.00% |           0      0.00%      0.00% |           0      0.00%      0.00% |           0      0.00%      0.00% |           1    100.00%    100.00% |           0      0.00%    100.00% (Unspecified)
system.caches.RequestTypeMachineType.RMW_Read.L1Cache.miss_type_mach_latency_hist_seqr::total            1                       (Unspecified)
system.caches.RequestTypeMachineType.RMW_Read.Directory.miss_type_mach_latency_hist_seqr::bucket_size           16                       (Unspecified)
system.caches.RequestTypeMachineType.RMW_Read.Directory.miss_type_mach_latency_hist_seqr::max_bucket          159                       (Unspecified)
system.caches.RequestTypeMachineType.RMW_Read.Directory.miss_type_mach_latency_hist_seqr::samples           75                       (Unspecified)
system.caches.RequestTypeMachineType.RMW_Read.Directory.miss_type_mach_latency_hist_seqr::mean    56.186667                       (Unspecified)
system.caches.RequestTypeMachineType.RMW_Read.Directory.miss_type_mach_latency_hist_seqr::gmean    53.862119                       (Unspecified)
system.caches.RequestTypeMachineType.RMW_Read.Directory.miss_type_mach_latency_hist_seqr::stdev    14.969061                       (Unspecified)
system.caches.RequestTypeMachineType.RMW_Read.Directory.miss_type_mach_latency_hist_seqr |           0      0.00%      0.00% |           4      5.33%      5.33% |           8     10.67%     16.00% |          48     64.00%     80.00% |          12     16.00%     96.00% |           3      4.00%    100.00% |           0      0.00%    100.00% |           0      0.00%    100.00% |           0      0.00%    100.00% |           0      0.00%    100.00% (Unspecified)
system.caches.RequestTypeMachineType.RMW_Read.Directory.miss_type_mach_latency_hist_seqr::total           75                       (Unspecified)
system.caches.RequestTypeMachineType.Locked_RMW_Read.L1Cache.miss_type_mach_latency_hist_seqr::bucket_size            2                       (Unspecified)
system.caches.RequestTypeMachineType.Locked_RMW_Read.L1Cache.miss_type_mach_latency_hist_seqr::max_bucket           19                       (Unspecified)
system.caches.RequestTypeMachineType.Locked_RMW_Read.L1Cache.miss_type_mach_latency_hist_seqr::samples            2                       (Unspecified)
system.caches.RequestTypeMachineType.Locked_RMW_Read.L1Cache.miss_type_mach_latency_hist_seqr::mean           16                       (Unspecified)
system.caches.RequestTypeMachineType.Locked_RMW_Read.L1Cache.miss_type_mach_latency_hist_seqr::gmean    16.000000                       (Unspecified)
system.caches.RequestTypeMachineType.Locked_RMW_Read.L1Cache.miss_type_mach_latency_hist_seqr |           0      0.00%      0.00% |           0      0.00%      0.00% |           0      0.00%      0.00% |           0      0.00%      0.00% |           0      0.00%      0.00% |           0      0.00%      0.00% |           0      0.00%      0.00% |           0      0.00%      0.00% |           2    100.00%    100.00% |           0      0.00%    100.00% (Unspecified)
system.caches.RequestTypeMachineType.Locked_RMW_Read.L1Cache.miss_type_mach_latency_hist_seqr::total            2                       (Unspecified)
system.caches.RequestTypeMachineType.Locked_RMW_Read.Directory.miss_type_mach_latency_hist_seqr::bucket_size           16                       (Unspecified)
system.caches.RequestTypeMachineType.Locked_RMW_Read.Directory.miss_type_mach_latency_hist_seqr::max_bucket          159                       (Unspecified)
system.caches.RequestTypeMachineType.Locked_RMW_Read.Directory.miss_type_mach_latency_hist_seqr::samples           32                       (Unspecified)
system.caches.RequestTypeMachineType.Locked_RMW_Read.Directory.miss_type_mach_latency_hist_seqr::mean    48.906250                       (Unspecified)
system.caches.RequestTypeMachineType.Locked_RMW_Read.Directory.miss_type_mach_latency_hist_seqr::gmean    45.041321                       (Unspecified)
system.caches.RequestTypeMachineType.Locked_RMW_Read.Directory.miss_type_mach_latency_hist_seqr::stdev    18.638080                       (Unspecified)
system.caches.RequestTypeMachineType.Locked_RMW_Read.Directory.miss_type_mach_latency_hist_seqr |           0      0.00%      0.00% |           7     21.88%     21.88% |           4     12.50%     34.38% |          14     43.75%     78.12% |           6     18.75%     96.88% |           1      3.12%    100.00% |           0      0.00%    100.00% |           0      0.00%    100.00% |           0      0.00%    100.00% |           0      0.00%    100.00% (Unspecified)
system.caches.RequestTypeMachineType.Locked_RMW_Read.Directory.miss_type_mach_latency_hist_seqr::total           32                       (Unspecified)
system.caches.controllers0.fullyBusyCycles        62670                       # cycles for which number of transistions == max transitions (Unspecified)
system.caches.controllers0.cacheMemory.m_demand_hits            0                       # Number of cache demand hits (Unspecified)
system.caches.controllers0.cacheMemory.m_demand_misses            0                       # Number of cache demand misses (Unspecified)
system.caches.controllers0.cacheMemory.m_demand_accesses            0                       # Number of cache demand accesses (Unspecified)
system.caches.controllers0.forwardFromDir.m_buf_msgs     0.001421                       # Average number of messages in buffer (Unspecified)
system.caches.controllers0.forwardFromDir.m_stall_time  4981.978082                       # Average number of cycles messages are stalled in this MB (Unspecified)
system.caches.controllers0.mandatoryQueue.m_buf_msgs     0.098117                       # Average number of messages in buffer (Unspecified)
system.caches.controllers0.mandatoryQueue.m_stall_time  1882.455341                       # Average number of cycles messages are stalled in this MB (Unspecified)
system.caches.controllers0.power_state.pwrStateResidencyTicks::UNDEFINED   4430716000                       # Cumulative time (in ticks) in various power states (Tick)
system.caches.controllers0.requestToDir.m_buf_msgs     0.002926                       # Average number of messages in buffer (Unspecified)
system.caches.controllers0.requestToDir.m_stall_time   999.999549                       # Average number of cycles messages are stalled in this MB (Unspecified)
system.caches.controllers0.responseFromDirOrSibling.m_buf_msgs     0.001513                       # Average number of messages in buffer (Unspecified)
system.caches.controllers0.responseFromDirOrSibling.m_stall_time  4999.917621                       # Average number of cycles messages are stalled in this MB (Unspecified)
system.caches.controllers0.responseToDirOrSibling.m_buf_msgs     0.000009                       # Average number of messages in buffer (Unspecified)
system.caches.controllers0.responseToDirOrSibling.m_stall_time   734.445178                       # Average number of cycles messages are stalled in this MB (Unspecified)
system.caches.controllers1.fullyBusyCycles        30580                       # cycles for which number of transistions == max transitions (Unspecified)
system.caches.controllers1.cacheMemory.m_demand_hits            0                       # Number of cache demand hits (Unspecified)
system.caches.controllers1.cacheMemory.m_demand_misses            0                       # Number of cache demand misses (Unspecified)
system.caches.controllers1.cacheMemory.m_demand_accesses            0                       # Number of cache demand accesses (Unspecified)
system.caches.controllers1.forwardFromDir.m_buf_msgs     0.000692                       # Average number of messages in buffer (Unspecified)
system.caches.controllers1.forwardFromDir.m_stall_time  3671.061292                       # Average number of cycles messages are stalled in this MB (Unspecified)
system.caches.controllers1.mandatoryQueue.m_buf_msgs     0.344696                       # Average number of messages in buffer (Unspecified)
system.caches.controllers1.mandatoryQueue.m_stall_time  1161.527843                       # Average number of cycles messages are stalled in this MB (Unspecified)
system.caches.controllers1.power_state.pwrStateResidencyTicks::UNDEFINED   4430716000                       # Cumulative time (in ticks) in various power states (Tick)
system.caches.controllers1.requestToDir.m_buf_msgs     0.001461                       # Average number of messages in buffer (Unspecified)
system.caches.controllers1.requestToDir.m_stall_time   734.461202                       # Average number of cycles messages are stalled in this MB (Unspecified)
system.caches.controllers1.responseFromDirOrSibling.m_buf_msgs     0.000774                       # Average number of messages in buffer (Unspecified)
system.caches.controllers1.responseFromDirOrSibling.m_stall_time  3672.249587                       # Average number of cycles messages are stalled in this MB (Unspecified)
system.caches.controllers1.responseToDirOrSibling.m_buf_msgs     0.000002                       # Average number of messages in buffer (Unspecified)
system.caches.controllers1.responseToDirOrSibling.m_stall_time   734.212033                       # Average number of cycles messages are stalled in this MB (Unspecified)
system.caches.controllers2.cacheMemory.m_demand_hits            0                       # Number of cache demand hits (Unspecified)
system.caches.controllers2.cacheMemory.m_demand_misses            0                       # Number of cache demand misses (Unspecified)
system.caches.controllers2.cacheMemory.m_demand_accesses            0                       # Number of cache demand accesses (Unspecified)
system.caches.controllers2.power_state.pwrStateResidencyTicks::UNDEFINED   4430716000                       # Cumulative time (in ticks) in various power states (Tick)
system.caches.controllers3.cacheMemory.m_demand_hits            0                       # Number of cache demand hits (Unspecified)
system.caches.controllers3.cacheMemory.m_demand_misses            0                       # Number of cache demand misses (Unspecified)
system.caches.controllers3.cacheMemory.m_demand_accesses            0                       # Number of cache demand accesses (Unspecified)
system.caches.controllers3.power_state.pwrStateResidencyTicks::UNDEFINED   4430716000                       # Cumulative time (in ticks) in various power states (Tick)
system.caches.controllers4.forwardToCache.m_buf_msgs     0.002167                       # Average number of messages in buffer (Unspecified)
system.caches.controllers4.forwardToCache.m_stall_time   999.534161                       # Average number of cycles messages are stalled in this MB (Unspecified)
system.caches.controllers4.power_state.pwrStateResidencyTicks::UNDEFINED   4430716000                       # Cumulative time (in ticks) in various power states (Tick)
system.caches.controllers4.requestFromCache.m_buf_msgs     0.004387                       # Average number of messages in buffer (Unspecified)
system.caches.controllers4.requestFromCache.m_stall_time  4999.993229                       # Average number of cycles messages are stalled in this MB (Unspecified)
system.caches.controllers4.requestToMemory.m_buf_msgs     0.002563                       # Average number of messages in buffer (Unspecified)
system.caches.controllers4.requestToMemory.m_stall_time  1000.018733                       # Average number of cycles messages are stalled in this MB (Unspecified)
system.caches.controllers4.responseFromCache.m_buf_msgs     0.000003                       # Average number of messages in buffer (Unspecified)
system.caches.controllers4.responseFromCache.m_stall_time  3672.221375                       # Average number of cycles messages are stalled in this MB (Unspecified)
system.caches.controllers4.responseFromMemory.m_buf_msgs     0.003334                       # Average number of messages in buffer (Unspecified)
system.caches.controllers4.responseFromMemory.m_stall_time   999.984653                       # Average number of cycles messages are stalled in this MB (Unspecified)
system.caches.controllers4.responseToCache.m_buf_msgs     0.002277                       # Average number of messages in buffer (Unspecified)
system.caches.controllers4.responseToCache.m_stall_time   999.984427                       # Average number of cycles messages are stalled in this MB (Unspecified)
system.caches.network.msg_count.Control         55132                       (Unspecified)
system.caches.network.msg_byte.Control         441056                       (Unspecified)
system.caches.network.msg_count.Data            22754                       (Unspecified)
system.caches.network.msg_byte.Data           1638288                       (Unspecified)
system.caches.network.int_link_buffers11.m_buf_msgs     0.000002                       # Average number of messages in buffer (Unspecified)
system.caches.network.int_link_buffers11.m_stall_time  2203.334179                       # Average number of cycles messages are stalled in this MB (Unspecified)
system.caches.network.int_link_buffers14.m_buf_msgs     0.000002                       # Average number of messages in buffer (Unspecified)
system.caches.network.int_link_buffers14.m_stall_time  2202.634744                       # Average number of cycles messages are stalled in this MB (Unspecified)
system.caches.network.int_link_buffers2.m_buf_msgs     0.000007                       # Average number of messages in buffer (Unspecified)
system.caches.network.int_link_buffers2.m_stall_time  2203.334179                       # Average number of cycles messages are stalled in this MB (Unspecified)
system.caches.network.int_link_buffers21.m_buf_msgs     0.001461                       # Average number of messages in buffer (Unspecified)
system.caches.network.int_link_buffers21.m_stall_time  2203.382253                       # Average number of cycles messages are stalled in this MB (Unspecified)
system.caches.network.int_link_buffers23.m_buf_msgs     0.000000                       # Average number of messages in buffer (Unspecified)
system.caches.network.int_link_buffers23.m_stall_time  2202.634744                       # Average number of cycles messages are stalled in this MB (Unspecified)
system.caches.network.int_link_buffers49.m_buf_msgs     0.001421                       # Average number of messages in buffer (Unspecified)
system.caches.network.int_link_buffers49.m_stall_time  2989.188203                       # Average number of cycles messages are stalled in this MB (Unspecified)
system.caches.network.int_link_buffers50.m_buf_msgs     0.001511                       # Average number of messages in buffer (Unspecified)
system.caches.network.int_link_buffers50.m_stall_time  2999.951927                       # Average number of cycles messages are stalled in this MB (Unspecified)
system.caches.network.int_link_buffers52.m_buf_msgs     0.000692                       # Average number of messages in buffer (Unspecified)
system.caches.network.int_link_buffers52.m_stall_time  2202.638129                       # Average number of cycles messages are stalled in this MB (Unspecified)
system.caches.network.int_link_buffers53.m_buf_msgs     0.000767                       # Average number of messages in buffer (Unspecified)
system.caches.network.int_link_buffers53.m_stall_time  2203.351106                       # Average number of cycles messages are stalled in this MB (Unspecified)
system.caches.network.int_link_buffers9.m_buf_msgs     0.002926                       # Average number of messages in buffer (Unspecified)
system.caches.network.int_link_buffers9.m_stall_time  2999.997292                       # Average number of cycles messages are stalled in this MB (Unspecified)
system.caches.network.power_state.pwrStateResidencyTicks::UNDEFINED   4430716000                       # Cumulative time (in ticks) in various power states (Tick)
system.caches.network.routers0.percent_links_utilized     0.197234                       (Unspecified)
system.caches.network.routers0.msg_count.Control::0        12015                       (Unspecified)
system.caches.network.routers0.msg_count.Control::1         6298                       (Unspecified)
system.caches.network.routers0.msg_count.Control::2           19                       (Unspecified)
system.caches.network.routers0.msg_bytes.Control::0        96120                       (Unspecified)
system.caches.network.routers0.msg_bytes.Control::1        50384                       (Unspecified)
system.caches.network.routers0.msg_bytes.Control::2          152                       (Unspecified)
system.caches.network.routers0.msg_count.Data::0          949                       (Unspecified)
system.caches.network.routers0.msg_count.Data::2         6724                       (Unspecified)
system.caches.network.routers0.msg_bytes.Data::0        68328                       (Unspecified)
system.caches.network.routers0.msg_bytes.Data::2       484128                       (Unspecified)
system.caches.network.routers0.port_buffers1.m_buf_msgs     0.001421                       # Average number of messages in buffer (Unspecified)
system.caches.network.routers0.port_buffers1.m_stall_time  3985.583368                       # Average number of cycles messages are stalled in this MB (Unspecified)
system.caches.network.routers0.port_buffers12.m_buf_msgs     0.002926                       # Average number of messages in buffer (Unspecified)
system.caches.network.routers0.port_buffers12.m_stall_time  1999.998646                       # Average number of cycles messages are stalled in this MB (Unspecified)
system.caches.network.routers0.port_buffers14.m_buf_msgs     0.000002                       # Average number of messages in buffer (Unspecified)
system.caches.network.routers0.port_buffers14.m_stall_time  1468.889904                       # Average number of cycles messages are stalled in this MB (Unspecified)
system.caches.network.routers0.port_buffers2.m_buf_msgs     0.001513                       # Average number of messages in buffer (Unspecified)
system.caches.network.routers0.port_buffers2.m_stall_time  3999.934999                       # Average number of cycles messages are stalled in this MB (Unspecified)
system.caches.network.routers0.port_buffers5.m_buf_msgs     0.000007                       # Average number of messages in buffer (Unspecified)
system.caches.network.routers0.port_buffers5.m_stall_time  1468.889904                       # Average number of cycles messages are stalled in this MB (Unspecified)
system.caches.network.routers0.power_state.pwrStateResidencyTicks::UNDEFINED   4430716000                       # Cumulative time (in ticks) in various power states (Tick)
system.caches.network.routers0.throttle00.link_utilization     0.751301                       (Unspecified)
system.caches.network.routers0.throttle00.msg_count.Control::1         6298                       (Unspecified)
system.caches.network.routers0.throttle00.msg_count.Control::2            5                       (Unspecified)
system.caches.network.routers0.throttle00.msg_bytes.Control::1        50384                       (Unspecified)
system.caches.network.routers0.throttle00.msg_bytes.Control::2           40                       (Unspecified)
system.caches.network.routers0.throttle00.msg_count.Data::2         6697                       (Unspecified)
system.caches.network.routers0.throttle00.msg_bytes.Data::2       482184                       (Unspecified)
system.caches.network.routers0.throttle01.link_utilization     0.001885                       (Unspecified)
system.caches.network.routers0.throttle01.msg_count.Control::2           14                       (Unspecified)
system.caches.network.routers0.throttle01.msg_bytes.Control::2          112                       (Unspecified)
system.caches.network.routers0.throttle01.msg_count.Data::2           17                       (Unspecified)
system.caches.network.routers0.throttle01.msg_bytes.Data::2         1224                       (Unspecified)
system.caches.network.routers0.throttle02.link_utilization            0                       (Unspecified)
system.caches.network.routers0.throttle03.link_utilization            0                       (Unspecified)
system.caches.network.routers0.throttle04.link_utilization     0.232987                       (Unspecified)
system.caches.network.routers0.throttle04.msg_count.Control::0        12015                       (Unspecified)
system.caches.network.routers0.throttle04.msg_bytes.Control::0        96120                       (Unspecified)
system.caches.network.routers0.throttle04.msg_count.Data::0          949                       (Unspecified)
system.caches.network.routers0.throttle04.msg_count.Data::2           10                       (Unspecified)
system.caches.network.routers0.throttle04.msg_bytes.Data::0        68328                       (Unspecified)
system.caches.network.routers0.throttle04.msg_bytes.Data::2          720                       (Unspecified)
system.caches.network.routers1.percent_links_utilized     0.096549                       (Unspecified)
system.caches.network.routers1.msg_count.Control::0         6167                       (Unspecified)
system.caches.network.routers1.msg_count.Control::1         3067                       (Unspecified)
system.caches.network.routers1.msg_count.Control::2           19                       (Unspecified)
system.caches.network.routers1.msg_bytes.Control::0        49336                       (Unspecified)
system.caches.network.routers1.msg_bytes.Control::1        24536                       (Unspecified)
system.caches.network.routers1.msg_bytes.Control::2          152                       (Unspecified)
system.caches.network.routers1.msg_count.Data::0          305                       (Unspecified)
system.caches.network.routers1.msg_count.Data::2         3420                       (Unspecified)
system.caches.network.routers1.msg_bytes.Data::0        21960                       (Unspecified)
system.caches.network.routers1.msg_bytes.Data::2       246240                       (Unspecified)
system.caches.network.routers1.port_buffers1.m_buf_msgs     0.000692                       # Average number of messages in buffer (Unspecified)
system.caches.network.routers1.port_buffers1.m_stall_time  2936.849936                       # Average number of cycles messages are stalled in this MB (Unspecified)
system.caches.network.routers1.port_buffers12.m_buf_msgs     0.001461                       # Average number of messages in buffer (Unspecified)
system.caches.network.routers1.port_buffers12.m_stall_time  1468.921953                       # Average number of cycles messages are stalled in this MB (Unspecified)
system.caches.network.routers1.port_buffers14.m_buf_msgs     0.000000                       # Average number of messages in buffer (Unspecified)
system.caches.network.routers1.port_buffers14.m_stall_time  1468.423614                       # Average number of cycles messages are stalled in this MB (Unspecified)
system.caches.network.routers1.port_buffers2.m_buf_msgs     0.000774                       # Average number of messages in buffer (Unspecified)
system.caches.network.routers1.port_buffers2.m_stall_time  2937.800572                       # Average number of cycles messages are stalled in this MB (Unspecified)
system.caches.network.routers1.port_buffers5.m_buf_msgs     0.000002                       # Average number of messages in buffer (Unspecified)
system.caches.network.routers1.port_buffers5.m_stall_time  1468.423614                       # Average number of cycles messages are stalled in this MB (Unspecified)
system.caches.network.routers1.power_state.pwrStateResidencyTicks::UNDEFINED   4430716000                       # Cumulative time (in ticks) in various power states (Tick)
system.caches.network.routers1.throttle00.link_utilization     0.381507                       (Unspecified)
system.caches.network.routers1.throttle00.msg_count.Control::1         3067                       (Unspecified)
system.caches.network.routers1.throttle00.msg_count.Control::2           14                       (Unspecified)
system.caches.network.routers1.throttle00.msg_bytes.Control::1        24536                       (Unspecified)
system.caches.network.routers1.throttle00.msg_bytes.Control::2          112                       (Unspecified)
system.caches.network.routers1.throttle00.msg_count.Data::2         3414                       (Unspecified)
system.caches.network.routers1.throttle00.msg_bytes.Data::2       245808                       (Unspecified)
system.caches.network.routers1.throttle01.link_utilization     0.000463                       (Unspecified)
system.caches.network.routers1.throttle01.msg_count.Control::2            5                       (Unspecified)
system.caches.network.routers1.throttle01.msg_bytes.Control::2           40                       (Unspecified)
system.caches.network.routers1.throttle01.msg_count.Data::2            4                       (Unspecified)
system.caches.network.routers1.throttle01.msg_bytes.Data::2          288                       (Unspecified)
system.caches.network.routers1.throttle02.link_utilization            0                       (Unspecified)
system.caches.network.routers1.throttle03.link_utilization            0                       (Unspecified)
system.caches.network.routers1.throttle04.link_utilization     0.100774                       (Unspecified)
system.caches.network.routers1.throttle04.msg_count.Control::0         6167                       (Unspecified)
system.caches.network.routers1.throttle04.msg_bytes.Control::0        49336                       (Unspecified)
system.caches.network.routers1.throttle04.msg_count.Data::0          305                       (Unspecified)
system.caches.network.routers1.throttle04.msg_count.Data::2            2                       (Unspecified)
system.caches.network.routers1.throttle04.msg_bytes.Data::0        21960                       (Unspecified)
system.caches.network.routers1.throttle04.msg_bytes.Data::2          144                       (Unspecified)
system.caches.network.routers2.percent_links_utilized            0                       (Unspecified)
system.caches.network.routers2.power_state.pwrStateResidencyTicks::UNDEFINED   4430716000                       # Cumulative time (in ticks) in various power states (Tick)
system.caches.network.routers2.throttle00.link_utilization            0                       (Unspecified)
system.caches.network.routers2.throttle01.link_utilization            0                       (Unspecified)
system.caches.network.routers2.throttle02.link_utilization            0                       (Unspecified)
[...]
system.mem_ctrl.rdPerTurnAround::128-159            9     12.00%     74.67% # Reads before turning the bus around for writes (Count)
system.mem_ctrl.rdPerTurnAround::160-191            8     10.67%     85.33% # Reads before turning the bus around for writes (Count)
system.mem_ctrl.rdPerTurnAround::192-223            3      4.00%     89.33% # Reads before turning the bus around for writes (Count)
system.mem_ctrl.rdPerTurnAround::224-255            2      2.67%     92.00% # Reads before turning the bus around for writes (Count)
system.mem_ctrl.rdPerTurnAround::288-319            1      1.33%     93.33% # Reads before turning the bus around for writes (Count)
system.mem_ctrl.rdPerTurnAround::320-351            1      1.33%     94.67% # Reads before turning the bus around for writes (Count)
system.mem_ctrl.rdPerTurnAround::352-383            1      1.33%     96.00% # Reads before turning the bus around for writes (Count)
system.mem_ctrl.rdPerTurnAround::384-415            1      1.33%     97.33% # Reads before turning the bus around for writes (Count)
system.mem_ctrl.rdPerTurnAround::416-447            1      1.33%     98.67% # Reads before turning the bus around for writes (Count)
system.mem_ctrl.rdPerTurnAround::928-959            1      1.33%    100.00% # Reads before turning the bus around for writes (Count)
system.mem_ctrl.rdPerTurnAround::total             75                       # Reads before turning the bus around for writes (Count)
system.mem_ctrl.wrPerTurnAround::samples           75                       # Writes before turning the bus around for reads (Count)
system.mem_ctrl.wrPerTurnAround::mean       16.053333                       # Writes before turning the bus around for reads (Count)
system.mem_ctrl.wrPerTurnAround::gmean      16.050333                       # Writes before turning the bus around for reads (Count)
system.mem_ctrl.wrPerTurnAround::stdev       0.324384                       # Writes before turning the bus around for reads (Count)
system.mem_ctrl.wrPerTurnAround::16                73     97.33%     97.33% # Writes before turning the bus around for reads (Count)
system.mem_ctrl.wrPerTurnAround::18                 2      2.67%    100.00% # Writes before turning the bus around for reads (Count)
system.mem_ctrl.wrPerTurnAround::total             75                       # Writes before turning the bus around for reads (Count)
system.mem_ctrl.bytesReadWrQ                    24576                       # Total number of bytes read from write queue (Byte)
system.mem_ctrl.bytesReadSys                   645760                       # Total read bytes from the system interface side (Byte)
system.mem_ctrl.bytesWrittenSys                 81024                       # Total written bytes from the system interface side (Byte)
system.mem_ctrl.avgRdBWSys               145746195.42304224                       # Average system read bandwidth in Byte/s ((Byte/Second))
system.mem_ctrl.avgWrBWSys               18286886.36328756                       # Average system write bandwidth in Byte/s ((Byte/Second))
system.mem_ctrl.totGap                     4430414000                       # Total gap between requests (Tick)
system.mem_ctrl.avgGap                      390138.61                       # Average gap between requests ((Tick/Count))
system.mem_ctrl.requestorReadBytes::caches.controllers4       621184                       # Per-requestor bytes read from memory (Byte)
system.mem_ctrl.requestorWriteBytes::caches.controllers4        77056                       # Per-requestor bytes write to memory (Byte)
system.mem_ctrl.requestorReadRate::caches.controllers4 140199462.118537932634                       # Per-requestor bytes read from memory rate ((Byte/Second))
system.mem_ctrl.requestorWriteRate::caches.controllers4 17391320.048497803509                       # Per-requestor bytes write to memory rate ((Byte/Second))
system.mem_ctrl.requestorReadAccesses::caches.controllers4        10090                       # Per-requestor read serviced memory accesses (Count)
system.mem_ctrl.requestorWriteAccesses::caches.controllers4         1266                       # Per-requestor write serviced memory accesses (Count)
system.mem_ctrl.requestorReadTotalLat::caches.controllers4    279261250                       # Per-requestor read total memory access latency (Tick)
system.mem_ctrl.requestorWriteTotalLat::caches.controllers4 111901773500                       # Per-requestor write total memory access latency (Tick)
system.mem_ctrl.requestorReadAvgLat::caches.controllers4     27677.03                       # Per-requestor read average memory access latency ((Tick/Count))
system.mem_ctrl.requestorWriteAvgLat::caches.controllers4  88390026.46                       # Per-requestor write average memory access latency ((Tick/Count))
system.mem_ctrl.dram.bytesRead::caches.controllers4       645760                       # Number of bytes read from this memory (Byte)
system.mem_ctrl.dram.bytesRead::total          645760                       # Number of bytes read from this memory (Byte)
system.mem_ctrl.dram.bytesWritten::caches.controllers4        81024                       # Number of bytes written to this memory (Byte)
system.mem_ctrl.dram.bytesWritten::total        81024                       # Number of bytes written to this memory (Byte)
system.mem_ctrl.dram.numReads::caches.controllers4        10090                       # Number of read requests responded to by this memory (Count)
system.mem_ctrl.dram.numReads::total            10090                       # Number of read requests responded to by this memory (Count)
system.mem_ctrl.dram.numWrites::caches.controllers4         1266                       # Number of write requests responded to by this memory (Count)
system.mem_ctrl.dram.numWrites::total            1266                       # Number of write requests responded to by this memory (Count)
system.mem_ctrl.dram.bwRead::caches.controllers4    145746195                       # Total read bandwidth from this memory ((Byte/Second))
system.mem_ctrl.dram.bwRead::total          145746195                       # Total read bandwidth from this memory ((Byte/Second))
system.mem_ctrl.dram.bwWrite::caches.controllers4     18286886                       # Write bandwidth from this memory ((Byte/Second))
system.mem_ctrl.dram.bwWrite::total          18286886                       # Write bandwidth from this memory ((Byte/Second))
system.mem_ctrl.dram.bwTotal::caches.controllers4    164033082                       # Total bandwidth to/from this memory ((Byte/Second))
system.mem_ctrl.dram.bwTotal::total         164033082                       # Total bandwidth to/from this memory ((Byte/Second))
system.mem_ctrl.dram.readBursts                  9706                       # Number of DRAM read bursts (Count)
system.mem_ctrl.dram.writeBursts                 1204                       # Number of DRAM write bursts (Count)
system.mem_ctrl.dram.perBankRdBursts::0           601                       # Per bank write bursts (Count)
system.mem_ctrl.dram.perBankRdBursts::1           661                       # Per bank write bursts (Count)
system.mem_ctrl.dram.perBankRdBursts::2           590                       # Per bank write bursts (Count)
system.mem_ctrl.dram.perBankRdBursts::3           788                       # Per bank write bursts (Count)
system.mem_ctrl.dram.perBankRdBursts::4           430                       # Per bank write bursts (Count)
system.mem_ctrl.dram.perBankRdBursts::5           538                       # Per bank write bursts (Count)
system.mem_ctrl.dram.perBankRdBursts::6           374                       # Per bank write bursts (Count)
system.mem_ctrl.dram.perBankRdBursts::7           897                       # Per bank write bursts (Count)
system.mem_ctrl.dram.perBankRdBursts::8          1078                       # Per bank write bursts (Count)
system.mem_ctrl.dram.perBankRdBursts::9           374                       # Per bank write bursts (Count)
system.mem_ctrl.dram.perBankRdBursts::10          344                       # Per bank write bursts (Count)
system.mem_ctrl.dram.perBankRdBursts::11          339                       # Per bank write bursts (Count)
system.mem_ctrl.dram.perBankRdBursts::12          372                       # Per bank write bursts (Count)
system.mem_ctrl.dram.perBankRdBursts::13          363                       # Per bank write bursts (Count)
system.mem_ctrl.dram.perBankRdBursts::14         1088                       # Per bank write bursts (Count)
system.mem_ctrl.dram.perBankRdBursts::15          869                       # Per bank write bursts (Count)
system.mem_ctrl.dram.perBankWrBursts::0            11                       # Per bank write bursts (Count)
system.mem_ctrl.dram.perBankWrBursts::1            17                       # Per bank write bursts (Count)
system.mem_ctrl.dram.perBankWrBursts::2           105                       # Per bank write bursts (Count)
system.mem_ctrl.dram.perBankWrBursts::3           140                       # Per bank write bursts (Count)
system.mem_ctrl.dram.perBankWrBursts::4             1                       # Per bank write bursts (Count)
system.mem_ctrl.dram.perBankWrBursts::5            49                       # Per bank write bursts (Count)
system.mem_ctrl.dram.perBankWrBursts::6            57                       # Per bank write bursts (Count)
system.mem_ctrl.dram.perBankWrBursts::7           136                       # Per bank write bursts (Count)
system.mem_ctrl.dram.perBankWrBursts::8           286                       # Per bank write bursts (Count)
system.mem_ctrl.dram.perBankWrBursts::9             1                       # Per bank write bursts (Count)
system.mem_ctrl.dram.perBankWrBursts::10           53                       # Per bank write bursts (Count)
system.mem_ctrl.dram.perBankWrBursts::11            0                       # Per bank write bursts (Count)
system.mem_ctrl.dram.perBankWrBursts::12           52                       # Per bank write bursts (Count)
system.mem_ctrl.dram.perBankWrBursts::13            6                       # Per bank write bursts (Count)
system.mem_ctrl.dram.perBankWrBursts::14          180                       # Per bank write bursts (Count)
system.mem_ctrl.dram.perBankWrBursts::15          110                       # Per bank write bursts (Count)
system.mem_ctrl.dram.totQLat                 97273750                       # Total ticks spent queuing (Tick)
system.mem_ctrl.dram.totBusLat               48530000                       # Total ticks spent in databus transfers (Tick)
system.mem_ctrl.dram.totMemAccLat           279261250                       # Total ticks spent from burst creation until serviced by the DRAM (Tick)
system.mem_ctrl.dram.avgQLat                 10022.02                       # Average queueing delay per DRAM burst ((Tick/Count))
system.mem_ctrl.dram.avgBusLat                5000.00                       # Average bus latency per DRAM burst ((Tick/Count))
system.mem_ctrl.dram.avgMemAccLat            28772.02                       # Average memory access latency per DRAM burst ((Tick/Count))
system.mem_ctrl.dram.readRowHits                 6746                       # Number of row buffer hits during reads (Count)
system.mem_ctrl.dram.writeRowHits                1044                       # Number of row buffer hits during writes (Count)
system.mem_ctrl.dram.readRowHitRate             69.50                       # Row buffer hit rate for reads (Ratio)
system.mem_ctrl.dram.writeRowHitRate            86.71                       # Row buffer hit rate for writes (Ratio)
system.mem_ctrl.dram.bytesPerActivate::samples         3119                       # Bytes accessed per row activation (Byte)
system.mem_ctrl.dram.bytesPerActivate::mean   223.846105                       # Bytes accessed per row activation (Byte)
system.mem_ctrl.dram.bytesPerActivate::gmean   145.660933                       # Bytes accessed per row activation (Byte)
system.mem_ctrl.dram.bytesPerActivate::stdev   246.653584                       # Bytes accessed per row activation (Byte)
system.mem_ctrl.dram.bytesPerActivate::0-127         1292     41.42%     41.42% # Bytes accessed per row activation (Byte)
system.mem_ctrl.dram.bytesPerActivate::128-255          926     29.69%     71.11% # Bytes accessed per row activation (Byte)
system.mem_ctrl.dram.bytesPerActivate::256-383          358     11.48%     82.59% # Bytes accessed per row activation (Byte)
system.mem_ctrl.dram.bytesPerActivate::384-511          157      5.03%     87.62% # Bytes accessed per row activation (Byte)
system.mem_ctrl.dram.bytesPerActivate::512-639           96      3.08%     90.70% # Bytes accessed per row activation (Byte)
system.mem_ctrl.dram.bytesPerActivate::640-767           70      2.24%     92.95% # Bytes accessed per row activation (Byte)
system.mem_ctrl.dram.bytesPerActivate::768-895           53      1.70%     94.65% # Bytes accessed per row activation (Byte)
system.mem_ctrl.dram.bytesPerActivate::896-1023           32      1.03%     95.67% # Bytes accessed per row activation (Byte)
system.mem_ctrl.dram.bytesPerActivate::1024-1151          135      4.33%    100.00% # Bytes accessed per row activation (Byte)
system.mem_ctrl.dram.bytesPerActivate::total         3119                       # Bytes accessed per row activation (Byte)
system.mem_ctrl.dram.bytesRead                 621184                       # Total number of bytes read from DRAM (Byte)
system.mem_ctrl.dram.bytesWritten               77056                       # Total number of bytes written to DRAM (Byte)
system.mem_ctrl.dram.avgRdBW               140.199462                       # Average DRAM read bandwidth in MiBytes/s ((Byte/Second))
system.mem_ctrl.dram.avgWrBW                17.391320                       # Average DRAM write bandwidth in MiBytes/s ((Byte/Second))
system.mem_ctrl.dram.peakBW                  12800.00                       # Theoretical peak bandwidth in MiByte/s ((Byte/Second))
system.mem_ctrl.dram.busUtil                     1.23                       # Data bus utilization in percentage (Ratio)
system.mem_ctrl.dram.busUtilRead                 1.10                       # Data bus utilization in percentage for reads (Ratio)
system.mem_ctrl.dram.busUtilWrite                0.14                       # Data bus utilization in percentage for writes (Ratio)
system.mem_ctrl.dram.pageHitRate                71.40                       # Row buffer hit rate, read and write combined (Ratio)
system.mem_ctrl.dram.power_state.pwrStateResidencyTicks::UNDEFINED   4430716000                       # Cumulative time (in ticks) in various power states (Tick)
system.mem_ctrl.dram.rank0.actEnergy         11516820                       # Energy for activate commands per rank (pJ) (Joule)
system.mem_ctrl.dram.rank0.preEnergy          6117540                       # Energy for precharge commands per rank (pJ) (Joule)
system.mem_ctrl.dram.rank0.readEnergy        34836060                       # Energy for read commands per rank (pJ) (Joule)
system.mem_ctrl.dram.rank0.writeEnergy        2693520                       # Energy for write commands per rank (pJ) (Joule)
system.mem_ctrl.dram.rank0.refreshEnergy 349730160.000000                       # Energy for refresh commands per rank (pJ) (Joule)
system.mem_ctrl.dram.rank0.actBackEnergy    776793150                       # Energy for active background per rank (pJ) (Joule)
system.mem_ctrl.dram.rank0.preBackEnergy   1047253440                       # Energy for precharge background per rank (pJ) (Joule)
system.mem_ctrl.dram.rank0.actPowerDownEnergy            0                       # Energy for active power-down per rank (pJ) (Joule)
system.mem_ctrl.dram.rank0.prePowerDownEnergy            0                       # Energy for precharge power-down per rank (pJ) (Joule)
system.mem_ctrl.dram.rank0.selfRefreshEnergy            0                       # Energy for self refresh per rank (pJ) (Joule)
system.mem_ctrl.dram.rank0.totalEnergy     2228940690                       # Total energy per rank (pJ) (Joule)
system.mem_ctrl.dram.rank0.averagePower    503.065575                       # Core power per rank (mW) (Watt)
system.mem_ctrl.dram.rank0.totalIdleTime            0                       # Total Idle time Per DRAM Rank (Tick)
system.mem_ctrl.dram.rank0.pwrStateTime::IDLE   2715482500                       # Time in different power states (Tick)
system.mem_ctrl.dram.rank0.pwrStateTime::REF    147940000                       # Time in different power states (Tick)
system.mem_ctrl.dram.rank0.pwrStateTime::SREF            0                       # Time in different power states (Tick)
system.mem_ctrl.dram.rank0.pwrStateTime::PRE_PDN            0                       # Time in different power states (Tick)
system.mem_ctrl.dram.rank0.pwrStateTime::ACT   1567293500                       # Time in different power states (Tick)
system.mem_ctrl.dram.rank0.pwrStateTime::ACT_PDN            0                       # Time in different power states (Tick)
system.mem_ctrl.dram.rank1.actEnergy         10759980                       # Energy for activate commands per rank (pJ) (Joule)
system.mem_ctrl.dram.rank1.preEnergy          5719065                       # Energy for precharge commands per rank (pJ) (Joule)
system.mem_ctrl.dram.rank1.readEnergy        34464780                       # Energy for read commands per rank (pJ) (Joule)
system.mem_ctrl.dram.rank1.writeEnergy        3591360                       # Energy for write commands per rank (pJ) (Joule)
system.mem_ctrl.dram.rank1.refreshEnergy 349730160.000000                       # Energy for refresh commands per rank (pJ) (Joule)
system.mem_ctrl.dram.rank1.actBackEnergy    737249400                       # Energy for active background per rank (pJ) (Joule)
system.mem_ctrl.dram.rank1.preBackEnergy   1080553440                       # Energy for precharge background per rank (pJ) (Joule)
system.mem_ctrl.dram.rank1.actPowerDownEnergy            0                       # Energy for active power-down per rank (pJ) (Joule)
system.mem_ctrl.dram.rank1.prePowerDownEnergy            0                       # Energy for precharge power-down per rank (pJ) (Joule)
system.mem_ctrl.dram.rank1.selfRefreshEnergy            0                       # Energy for self refresh per rank (pJ) (Joule)
system.mem_ctrl.dram.rank1.totalEnergy     2222068185                       # Total energy per rank (pJ) (Joule)
system.mem_ctrl.dram.rank1.averagePower    501.514470                       # Core power per rank (mW) (Watt)
system.mem_ctrl.dram.rank1.totalIdleTime            0                       # Total Idle time Per DRAM Rank (Tick)
system.mem_ctrl.dram.rank1.pwrStateTime::IDLE   2802415500                       # Time in different power states (Tick)
system.mem_ctrl.dram.rank1.pwrStateTime::REF    147940000                       # Time in different power states (Tick)
system.mem_ctrl.dram.rank1.pwrStateTime::SREF            0                       # Time in different power states (Tick)
system.mem_ctrl.dram.rank1.pwrStateTime::PRE_PDN            0                       # Time in different power states (Tick)
system.mem_ctrl.dram.rank1.pwrStateTime::ACT   1480360500                       # Time in different power states (Tick)
system.mem_ctrl.dram.rank1.pwrStateTime::ACT_PDN            0                       # Time in different power states (Tick)
system.mem_ctrl.power_state.pwrStateResidencyTicks::UNDEFINED   4430716000                       # Cumulative time (in ticks) in various power states (Tick)
system.workload.inst.arm                            0                       # number of arm instructions executed (Count)
system.workload.inst.quiesce                        0                       # number of quiesce instructions executed (Count)

---------- End Simulation Statistics   ----------
