
---------- Begin Simulation Statistics ----------
simSeconds                                   0.716589                       # Number of seconds simulated (Second)
simTicks                                 716588670000                       # Number of ticks simulated (Tick)
finalTick                                716588670000                       # Number of ticks from beginning of simulation (restored from checkpoints and never reset) (Tick)
simFreq                                  1000000000000                       # The number of ticks per simulated second ((Tick/Second))
hostSeconds                                    734.70                       # Real time elapsed on the host (Second)
hostTickRate                                975354882                       # The number of ticks simulated per host second (ticks/s) ((Tick/Second))
hostMemory                                     823220                       # Number of bytes of host memory used (Byte)
simInsts                                    211313555                       # Number of instructions simulated (Count)
simOps                                      338571806                       # Number of ops (including micro ops) simulated (Count)
hostInstRate                                   287621                       # Simulator instruction rate (inst/s) ((Count/Second))
hostOpRate                                     460833                       # Simulator op (including micro ops) rate (op/s) ((Count/Second))
system.caches.m_outstandReqHistSeqr::bucket_size            1                       (Unspecified)
system.caches.m_outstandReqHistSeqr::max_bucket            9                       (Unspecified)
system.caches.m_outstandReqHistSeqr::samples    357642611                       (Unspecified)
system.caches.m_outstandReqHistSeqr::mean     1.000001                       (Unspecified)
system.caches.m_outstandReqHistSeqr::gmean     1.000001                       (Unspecified)
system.caches.m_outstandReqHistSeqr::stdev     0.001201                       (Unspecified)
system.caches.m_outstandReqHistSeqr      |           0      0.00%      0.00% |   357642095    100.00%    100.00% |         516      0.00%    100.00% |           0      0.00%    100.00% |           0      0.00%    100.00% |           0      0.00%    100.00% |           0      0.00%    100.00% |           0      0.00%    100.00% |           0      0.00%    100.00% |           0      0.00%    100.00% (Unspecified)
system.caches.m_outstandReqHistSeqr::total    357642611                       (Unspecified)
system.caches.m_latencyHistSeqr::bucket_size           64                       (Unspecified)
system.caches.m_latencyHistSeqr::max_bucket          639                       (Unspecified)
system.caches.m_latencyHistSeqr::samples    357642611                       (Unspecified)
system.caches.m_latencyHistSeqr::mean        1.003653                       (Unspecified)
system.caches.m_latencyHistSeqr::gmean       1.000219                       (Unspecified)
system.caches.m_latencyHistSeqr::stdev       0.559730                       (Unspecified)
system.caches.m_latencyHistSeqr          |   357635161    100.00%    100.00% |        6856      0.00%    100.00% |         260      0.00%    100.00% |         113      0.00%    100.00% |         151      0.00%    100.00% |          69      0.00%    100.00% |           0      0.00%    100.00% |           1      0.00%    100.00% |           0      0.00%    100.00% |           0      0.00%    100.00% (Unspecified)
system.caches.m_latencyHistSeqr::total      357642611                       (Unspecified)
system.caches.m_hitLatencyHistSeqr::bucket_size            2                       (Unspecified)
system.caches.m_hitLatencyHistSeqr::max_bucket           19                       (Unspecified)
system.caches.m_hitLatencyHistSeqr::samples    357624010                       (Unspecified)
system.caches.m_hitLatencyHistSeqr::mean     1.000000                       (Unspecified)
system.caches.m_hitLatencyHistSeqr::gmean     1.000000                       (Unspecified)
system.caches.m_hitLatencyHistSeqr::stdev     0.000529                       (Unspecified)
system.caches.m_hitLatencyHistSeqr       |   357624009    100.00%    100.00% |           0      0.00%    100.00% |           0      0.00%    100.00% |           0      0.00%    100.00% |           0      0.00%    100.00% |           1      0.00%    100.00% |           0      0.00%    100.00% |           0      0.00%    100.00% |           0      0.00%    100.00% |           0      0.00%    100.00% (Unspecified)
system.caches.m_hitLatencyHistSeqr::total    357624010                       (Unspecified)
system.caches.m_missLatencyHistSeqr::bucket_size           64                       (Unspecified)
system.caches.m_missLatencyHistSeqr::max_bucket          639                       (Unspecified)
system.caches.m_missLatencyHistSeqr::samples        18601                       (Unspecified)
system.caches.m_missLatencyHistSeqr::mean    71.228805                       (Unspecified)
system.caches.m_missLatencyHistSeqr::gmean    67.292186                       (Unspecified)
system.caches.m_missLatencyHistSeqr::stdev    33.045690                       (Unspecified)
system.caches.m_missLatencyHistSeqr      |       11151     59.95%     59.95% |        6856     36.86%     96.81% |         260      1.40%     98.20% |         113      0.61%     98.81% |         151      0.81%     99.62% |          69      0.37%     99.99% |           0      0.00%     99.99% |           1      0.01%    100.00% |           0      0.00%    100.00% |           0      0.00%    100.00% (Unspecified)
system.caches.m_missLatencyHistSeqr::total        18601                       (Unspecified)
system.caches.L1Cache_Controller.Load    |    10598906      3.25%      3.25% |   315990364     96.75%    100.00% |           0      0.00%    100.00% |           0      0.00%    100.00% (Unspecified)
system.caches.L1Cache_Controller.Load::total    326589270                       (Unspecified)
system.caches.L1Cache_Controller.Store   |     1474804      4.75%      4.75% |    29578537     95.25%    100.00% |           0      0.00%    100.00% |           0      0.00%    100.00% (Unspecified)
system.caches.L1Cache_Controller.Store::total     31053341                       (Unspecified)
system.caches.L1Cache_Controller.Replacement |     2176987     39.28%     39.28% |     3364543     60.72%    100.00% |           0      0.00%    100.00% |           0      0.00%    100.00% (Unspecified)
system.caches.L1Cache_Controller.Replacement::total      5541530                       (Unspecified)
system.caches.L1Cache_Controller.FwdGetS |          10     83.33%     83.33% |           2     16.67%    100.00% |           0      0.00%    100.00% |           0      0.00%    100.00% (Unspecified)
system.caches.L1Cache_Controller.FwdGetS::total           12                       (Unspecified)
system.caches.L1Cache_Controller.FwdGetM |           7     77.78%     77.78% |           2     22.22%    100.00% |           0      0.00%    100.00% |           0      0.00%    100.00% (Unspecified)
system.caches.L1Cache_Controller.FwdGetM::total            9                       (Unspecified)
system.caches.L1Cache_Controller.Inv     |          14     73.68%     73.68% |           5     26.32%    100.00% |           0      0.00%    100.00% |           0      0.00%    100.00% (Unspecified)
system.caches.L1Cache_Controller.Inv::total           19                       (Unspecified)
system.caches.L1Cache_Controller.PutAck  |        6803     39.28%     39.28% |       10515     60.72%    100.00% |           0      0.00%    100.00% |           0      0.00%    100.00% (Unspecified)
system.caches.L1Cache_Controller.PutAck::total        17318                       (Unspecified)
system.caches.L1Cache_Controller.DataDirNoAcks |        7231     38.92%     38.92% |       11349     61.08%    100.00% |           0      0.00%    100.00% |           0      0.00%    100.00% (Unspecified)
system.caches.L1Cache_Controller.DataDirNoAcks::total        18580                       (Unspecified)
system.caches.L1Cache_Controller.DataOwner |           4     19.05%     19.05% |          17     80.95%    100.00% |           0      0.00%    100.00% |           0      0.00%    100.00% (Unspecified)
system.caches.L1Cache_Controller.DataOwner::total           21                       (Unspecified)
system.caches.L1Cache_Controller.InvAck  |           5     26.32%     26.32% |          14     73.68%    100.00% |           0      0.00%    100.00% |           0      0.00%    100.00% (Unspecified)
system.caches.L1Cache_Controller.InvAck::total           19                       (Unspecified)
system.caches.L1Cache_Controller.I.Load  |        5967     39.69%     39.69% |        9066     60.31%    100.00% |           0      0.00%    100.00% |           0      0.00%    100.00% (Unspecified)
system.caches.L1Cache_Controller.I.Load::total        15033                       (Unspecified)
system.caches.L1Cache_Controller.I.Store |        1113     39.48%     39.48% |        1706     60.52%    100.00% |           0      0.00%    100.00% |           0      0.00%    100.00% (Unspecified)
system.caches.L1Cache_Controller.I.Store::total         2819                       (Unspecified)
system.caches.L1Cache_Controller.IS_D.DataDirNoAcks |        5965     39.71%     39.71% |        9056     60.29%    100.00% |           0      0.00%    100.00% |           0      0.00%    100.00% (Unspecified)
system.caches.L1Cache_Controller.IS_D.DataDirNoAcks::total        15021                       (Unspecified)
system.caches.L1Cache_Controller.IS_D.DataOwner |           2     16.67%     16.67% |          10     83.33%    100.00% |           0      0.00%    100.00% |           0      0.00%    100.00% (Unspecified)
system.caches.L1Cache_Controller.IS_D.DataOwner::total           12                       (Unspecified)
system.caches.L1Cache_Controller.IM_AD.DataDirNoAcks |        1111     39.54%     39.54% |        1699     60.46%    100.00% |           0      0.00%    100.00% |           0      0.00%    100.00% (Unspecified)
system.caches.L1Cache_Controller.IM_AD.DataDirNoAcks::total         2810                       (Unspecified)
system.caches.L1Cache_Controller.IM_AD.DataOwner |           2     22.22%     22.22% |           7     77.78%    100.00% |           0      0.00%    100.00% |           0      0.00%    100.00% (Unspecified)
system.caches.L1Cache_Controller.IM_AD.DataOwner::total            9                       (Unspecified)
system.caches.L1Cache_Controller.IM_AD.InvAck |           2     50.00%     50.00% |           2     50.00%    100.00% |           0      0.00%    100.00% |           0      0.00%    100.00% (Unspecified)
system.caches.L1Cache_Controller.IM_AD.InvAck::total            4                       (Unspecified)
system.caches.L1Cache_Controller.S.Load  |     9464317      3.44%      3.44% |   266051583     96.56%    100.00% |           0      0.00%    100.00% |           0      0.00%    100.00% (Unspecified)
system.caches.L1Cache_Controller.S.Load::total    275515900                       (Unspecified)
system.caches.L1Cache_Controller.S.Store |         155     20.69%     20.69% |         594     79.31%    100.00% |           0      0.00%    100.00% |           0      0.00%    100.00% (Unspecified)
system.caches.L1Cache_Controller.S.Store::total          749                       (Unspecified)
system.caches.L1Cache_Controller.S.Replacement |        5593     40.38%     40.38% |        8257     59.62%    100.00% |           0      0.00%    100.00% |           0      0.00%    100.00% (Unspecified)
system.caches.L1Cache_Controller.S.Replacement::total        13850                       (Unspecified)
system.caches.L1Cache_Controller.S.Inv   |          14     73.68%     73.68% |           5     26.32%    100.00% |           0      0.00%    100.00% |           0      0.00%    100.00% (Unspecified)
system.caches.L1Cache_Controller.S.Inv::total           19                       (Unspecified)
system.caches.L1Cache_Controller.SM_AD.DataDirNoAcks |         155     20.69%     20.69% |         594     79.31%    100.00% |           0      0.00%    100.00% |           0      0.00%    100.00% (Unspecified)
system.caches.L1Cache_Controller.SM_AD.DataDirNoAcks::total          749                       (Unspecified)
system.caches.L1Cache_Controller.SM_AD.InvAck |           3     20.00%     20.00% |          12     80.00%    100.00% |           0      0.00%    100.00% |           0      0.00%    100.00% (Unspecified)
system.caches.L1Cache_Controller.SM_AD.InvAck::total           15                       (Unspecified)
system.caches.L1Cache_Controller.M.Load  |     1128622      2.21%      2.21% |    49929715     97.79%    100.00% |           0      0.00%    100.00% |           0      0.00%    100.00% (Unspecified)
system.caches.L1Cache_Controller.M.Load::total     51058337                       (Unspecified)
system.caches.L1Cache_Controller.M.Store |     1473536      4.75%      4.75% |    29576237     95.25%    100.00% |           0      0.00%    100.00% |           0      0.00%    100.00% (Unspecified)
system.caches.L1Cache_Controller.M.Store::total     31049773                       (Unspecified)
system.caches.L1Cache_Controller.M.Replacement |        1210     34.89%     34.89% |        2258     65.11%    100.00% |           0      0.00%    100.00% |           0      0.00%    100.00% (Unspecified)
system.caches.L1Cache_Controller.M.Replacement::total         3468                       (Unspecified)
system.caches.L1Cache_Controller.M.FwdGetS |          10     83.33%     83.33% |           2     16.67%    100.00% |           0      0.00%    100.00% |           0      0.00%    100.00% (Unspecified)
system.caches.L1Cache_Controller.M.FwdGetS::total           12                       (Unspecified)
system.caches.L1Cache_Controller.M.FwdGetM |           7     77.78%     77.78% |           2     22.22%    100.00% |           0      0.00%    100.00% |           0      0.00%    100.00% (Unspecified)
system.caches.L1Cache_Controller.M.FwdGetM::total            9                       (Unspecified)
system.caches.L1Cache_Controller.MI_A.Replacement |      385989     34.90%     34.90% |      720131     65.10%    100.00% |           0      0.00%    100.00% |           0      0.00%    100.00% (Unspecified)
system.caches.L1Cache_Controller.MI_A.Replacement::total      1106120                       (Unspecified)
system.caches.L1Cache_Controller.MI_A.PutAck |        1210     34.89%     34.89% |        2258     65.11%    100.00% |           0      0.00%    100.00% |           0      0.00%    100.00% (Unspecified)
system.caches.L1Cache_Controller.MI_A.PutAck::total         3468                       (Unspecified)
system.caches.L1Cache_Controller.SI_A.Replacement |     1784195     40.38%     40.38% |     2633897     59.62%    100.00% |           0      0.00%    100.00% |           0      0.00%    100.00% (Unspecified)
system.caches.L1Cache_Controller.SI_A.Replacement::total      4418092                       (Unspecified)
system.caches.L1Cache_Controller.SI_A.PutAck |        5593     40.38%     40.38% |        8257     59.62%    100.00% |           0      0.00%    100.00% |           0      0.00%    100.00% (Unspecified)
system.caches.L1Cache_Controller.SI_A.PutAck::total        13850                       (Unspecified)
system.caches.Directory_Controller.GetS         15033      0.00%      0.00% (Unspecified)
system.caches.Directory_Controller.GetM          3568      0.00%      0.00% (Unspecified)
system.caches.Directory_Controller.PutSNotLast          568      0.00%      0.00% (Unspecified)
system.caches.Directory_Controller.PutSLast        13282      0.00%      0.00% (Unspecified)
system.caches.Directory_Controller.PutMOwner         3468      0.00%      0.00% (Unspecified)
system.caches.Directory_Controller.Data            12      0.00%      0.00% (Unspecified)
system.caches.Directory_Controller.MemData        18580      0.00%      0.00% (Unspecified)
system.caches.Directory_Controller.MemAck         3480      0.00%      0.00% (Unspecified)
system.caches.Directory_Controller.I.GetS        14428      0.00%      0.00% (Unspecified)
system.caches.Directory_Controller.I.GetM         2806      0.00%      0.00% (Unspecified)
system.caches.Directory_Controller.S.GetS          593      0.00%      0.00% (Unspecified)
system.caches.Directory_Controller.S.GetM          753      0.00%      0.00% (Unspecified)
system.caches.Directory_Controller.S.PutSNotLast          568      0.00%      0.00% (Unspecified)
system.caches.Directory_Controller.S.PutSLast        13282      0.00%      0.00% (Unspecified)
system.caches.Directory_Controller.M.GetS           12      0.00%      0.00% (Unspecified)
system.caches.Directory_Controller.M.GetM            9      0.00%      0.00% (Unspecified)
system.caches.Directory_Controller.M.PutMOwner         3468      0.00%      0.00% (Unspecified)
system.caches.Directory_Controller.S_D.Data           12      0.00%      0.00% (Unspecified)
system.caches.Directory_Controller.S_m.MemData        15021      0.00%      0.00% (Unspecified)
system.caches.Directory_Controller.M_m.MemData         3559      0.00%      0.00% (Unspecified)
system.caches.Directory_Controller.MI_m.MemAck         3468      0.00%      0.00% (Unspecified)
system.caches.Directory_Controller.SS_m.MemAck           12      0.00%      0.00% (Unspecified)
system.caches.MachineType.L1Cache.miss_mach_latency_hist_seqr::bucket_size            4                       (Unspecified)
system.caches.MachineType.L1Cache.miss_mach_latency_hist_seqr::max_bucket           39                       (Unspecified)
system.caches.MachineType.L1Cache.miss_mach_latency_hist_seqr::samples           21                       (Unspecified)
system.caches.MachineType.L1Cache.miss_mach_latency_hist_seqr::mean    19.333333                       (Unspecified)
system.caches.MachineType.L1Cache.miss_mach_latency_hist_seqr::gmean    18.810678                       (Unspecified)
system.caches.MachineType.L1Cache.miss_mach_latency_hist_seqr::stdev     4.830459                       (Unspecified)
system.caches.MachineType.L1Cache.miss_mach_latency_hist_seqr |           0      0.00%      0.00% |           0      0.00%      0.00% |           0      0.00%      0.00% |           0      0.00%      0.00% |          14     66.67%     66.67% |           0      0.00%     66.67% |           7     33.33%    100.00% |           0      0.00%    100.00% |           0      0.00%    100.00% |           0      0.00%    100.00% (Unspecified)
system.caches.MachineType.L1Cache.miss_mach_latency_hist_seqr::total           21                       (Unspecified)
system.caches.MachineType.L1Cache.incomplete_times_seqr           21                       (Unspecified)
system.caches.MachineType.Directory.miss_mach_latency_hist_seqr::bucket_size           64                      
system.caches.MachineType.Directory.miss_mach_latency_hist_seqr::max_bucket          639                      
system.caches.MachineType.Directory.miss_mach_latency_hist_seqr::samples        18580                      
system.caches.MachineType.Directory.miss_mach_latency_hist_seqr::mean    71.287460                      
system.caches.MachineType.Directory.miss_mach_latency_hist_seqr::gmean    67.389200                      
system.caches.MachineType.Directory.miss_mach_latency_hist_seqr::stdev    33.017864                      
system.caches.MachineType.Directory.miss_mach_latency_hist_seqr |       11130     59.90%     59.90% |        6856     36.90%     96.80% |         260      1.40%     98.20% |         113      0.61%     98.81% |         151      0.81%     99.62% |          69      0.37%     99.99% |           0      0.00%     99.99% |           1      0.01%    100.00% |           0      0.00%    100.00% |           0      0.00%    100.00% (Unspecified)
system.caches.MachineType.Directory.miss_mach_latency_hist_seqr::total        18580                      
system.caches.MachineType.Directory.miss_latency_hist_seqr.issue_to_initial_request::bucket_size            1                      
system.caches.MachineType.Directory.miss_latency_hist_seqr.issue_to_initial_request::max_bucket            9                      
system.caches.MachineType.Directory.miss_latency_hist_seqr.issue_to_initial_request::samples            1                      
system.caches.MachineType.Directory.miss_latency_hist_seqr.issue_to_initial_request::stdev          nan                      
system.caches.MachineType.Directory.miss_latency_hist_seqr.issue_to_initial_request |           1    100.00%    100.00% |           0      0.00%    100.00% |           0      0.00%    100.00% |           0      0.00%    100.00% |           0      0.00%    100.00% |           0      0.00%    100.00% |           0      0.00%    100.00% |           0      0.00%    100.00% |           0      0.00%    100.00% |           0      0.00%    100.00% (Unspecified)
system.caches.MachineType.Directory.miss_latency_hist_seqr.issue_to_initial_request::total            1                      
system.caches.MachineType.Directory.miss_latency_hist_seqr.initial_to_forward::bucket_size            1                      
system.caches.MachineType.Directory.miss_latency_hist_seqr.initial_to_forward::max_bucket            9                      
system.caches.MachineType.Directory.miss_latency_hist_seqr.initial_to_forward::samples            1                      
system.caches.MachineType.Directory.miss_latency_hist_seqr.initial_to_forward::stdev          nan                      
system.caches.MachineType.Directory.miss_latency_hist_seqr.initial_to_forward |           1    100.00%    100.00% |           0      0.00%    100.00% |           0      0.00%    100.00% |           0      0.00%    100.00% |           0      0.00%    100.00% |           0      0.00%    100.00% |           0      0.00%    100.00% |           0      0.00%    100.00% |           0      0.00%    100.00% |           0      0.00%    100.00% (Unspecified)
system.caches.MachineType.Directory.miss_latency_hist_seqr.initial_to_forward::total            1                      
system.caches.MachineType.Directory.miss_latency_hist_seqr.forward_to_first_response::bucket_size            1                      
system.caches.MachineType.Directory.miss_latency_hist_seqr.forward_to_first_response::max_bucket            9                      
system.caches.MachineType.Directory.miss_latency_hist_seqr.forward_to_first_response::samples            1                      
system.caches.MachineType.Directory.miss_latency_hist_seqr.forward_to_first_response::stdev          nan                      
system.caches.MachineType.Directory.miss_latency_hist_seqr.forward_to_first_response |           1    100.00%    100.00% |           0      0.00%    100.00% |           0      0.00%    100.00% |           0      0.00%    100.00% |           0      0.00%    100.00% |           0      0.00%    100.00% |           0      0.00%    100.00% |           0      0.00%    100.00% |           0      0.00%    100.00% |           0      0.00%    100.00% (Unspecified)
system.caches.MachineType.Directory.miss_latency_hist_seqr.forward_to_first_response::total            1                      
system.caches.MachineType.Directory.miss_latency_hist_seqr.first_response_to_completion::bucket_size            8                      
system.caches.MachineType.Directory.miss_latency_hist_seqr.first_response_to_completion::max_bucket           79                      
system.caches.MachineType.Directory.miss_latency_hist_seqr.first_response_to_completion::samples            1                      
system.caches.MachineType.Directory.miss_latency_hist_seqr.first_response_to_completion::mean           73                      
system.caches.MachineType.Directory.miss_latency_hist_seqr.first_response_to_completion::gmean    73.000000                      
system.caches.MachineType.Directory.miss_latency_hist_seqr.first_response_to_completion::stdev          nan                      
system.caches.MachineType.Directory.miss_latency_hist_seqr.first_response_to_completion |           0      0.00%      0.00% |           0      0.00%      0.00% |           0      0.00%      0.00% |           0      0.00%      0.00% |           0      0.00%      0.00% |           0      0.00%      0.00% |           0      0.00%      0.00% |           0      0.00%      0.00% |           0      0.00%      0.00% |           1    100.00%    100.00% (Unspecified)
system.caches.MachineType.Directory.miss_latency_hist_seqr.first_response_to_completion::total            1                      
system.caches.MachineType.Directory.incomplete_times_seqr        18579                       (Unspecified)
system.caches.RequestType.LD.latency_hist_seqr::bucket_size           64                       (Unspecified)
system.caches.RequestType.LD.latency_hist_seqr::max_bucket          639                       (Unspecified)
system.caches.RequestType.LD.latency_hist_seqr::samples     52964057                       (Unspecified)
system.caches.RequestType.LD.latency_hist_seqr::mean     1.011066                       (Unspecified)
system.caches.RequestType.LD.latency_hist_seqr::gmean     1.000661                       (Unspecified)
system.caches.RequestType.LD.latency_hist_seqr::stdev     0.981823                       (Unspecified)
system.caches.RequestType.LD.latency_hist_seqr |    52960482     99.99%     99.99% |        3304      0.01%    100.00% |         111      0.00%    100.00% |          63      0.00%    100.00% |          59      0.00%    100.00% |          38      0.00%    100.00% |           0      0.00%    100.00% |           0      0.00%    100.00% |           0      0.00%    100.00% |           0      0.00%    100.00% (Unspecified)
system.caches.RequestType.LD.latency_hist_seqr::total     52964057                       (Unspecified)
system.caches.RequestType.LD.hit_latency_hist_seqr::bucket_size            1                       (Unspecified)
system.caches.RequestType.LD.hit_latency_hist_seqr::max_bucket            9                       (Unspecified)
system.caches.RequestType.LD.hit_latency_hist_seqr::samples     52955731                       (Unspecified)
system.caches.RequestType.LD.hit_latency_hist_seqr::mean            1                       (Unspecified)
system.caches.RequestType.LD.hit_latency_hist_seqr::gmean            1                       (Unspecified)
system.caches.RequestType.LD.hit_latency_hist_seqr |           0      0.00%      0.00% |    52955731    100.00%    100.00% |           0      0.00%    100.00% |           0      0.00%    100.00% |           0      0.00%    100.00% |           0      0.00%    100.00% |           0      0.00%    100.00% |           0      0.00%    100.00% |           0      0.00%    100.00% |           0      0.00%    100.00% (Unspecified)
system.caches.RequestType.LD.hit_latency_hist_seqr::total     52955731                       (Unspecified)
system.caches.RequestType.LD.miss_latency_hist_seqr::bucket_size           64                       (Unspecified)
system.caches.RequestType.LD.miss_latency_hist_seqr::max_bucket          639                       (Unspecified)
system.caches.RequestType.LD.miss_latency_hist_seqr::samples         8326                       (Unspecified)
system.caches.RequestType.LD.miss_latency_hist_seqr::mean    71.394908                       (Unspecified)
system.caches.RequestType.LD.miss_latency_hist_seqr::gmean    66.898425                       (Unspecified)
system.caches.RequestType.LD.miss_latency_hist_seqr::stdev    34.316327                       (Unspecified)
system.caches.RequestType.LD.miss_latency_hist_seqr |        4751     57.06%     57.06% |        3304     39.68%     96.75% |         111      1.33%     98.08% |          63      0.76%     98.83% |          59      0.71%     99.54% |          38      0.46%    100.00% |           0      0.00%    100.00% |           0      0.00%    100.00% |           0      0.00%    100.00% |           0      0.00%    100.00% (Unspecified)
system.caches.RequestType.LD.miss_latency_hist_seqr::total         8326                       (Unspecified)
system.caches.RequestType.ST.latency_hist_seqr::bucket_size           64                       (Unspecified)
system.caches.RequestType.ST.latency_hist_seqr::max_bucket          639                       (Unspecified)
system.caches.RequestType.ST.latency_hist_seqr::samples     29453004                       (Unspecified)
system.caches.RequestType.ST.latency_hist_seqr::mean     1.008218                       (Unspecified)
system.caches.RequestType.ST.latency_hist_seqr::gmean     1.000492                       (Unspecified)
system.caches.RequestType.ST.latency_hist_seqr::stdev     0.839632                       (Unspecified)
system.caches.RequestType.ST.latency_hist_seqr |    29451225     99.99%     99.99% |        1638      0.01%    100.00% |          86      0.00%    100.00% |          19      0.00%    100.00% |          31      0.00%    100.00% |           4      0.00%    100.00% |           0      0.00%    100.00% |           1      0.00%    100.00% |           0      0.00%    100.00% |           0      0.00%    100.00% (Unspecified)
system.caches.RequestType.ST.latency_hist_seqr::total     29453004                       (Unspecified)
system.caches.RequestType.ST.hit_latency_hist_seqr::bucket_size            2                       (Unspecified)
system.caches.RequestType.ST.hit_latency_hist_seqr::max_bucket           19                       (Unspecified)
system.caches.RequestType.ST.hit_latency_hist_seqr::samples     29449555                       (Unspecified)
system.caches.RequestType.ST.hit_latency_hist_seqr::mean     1.000000                       (Unspecified)
system.caches.RequestType.ST.hit_latency_hist_seqr::gmean     1.000000                       (Unspecified)
system.caches.RequestType.ST.hit_latency_hist_seqr::stdev     0.001843                       (Unspecified)
system.caches.RequestType.ST.hit_latency_hist_seqr |    29449554    100.00%    100.00% |           0      0.00%    100.00% |           0      0.00%    100.00% |           0      0.00%    100.00% |           0      0.00%    100.00% |           1      0.00%    100.00% |           0      0.00%    100.00% |           0      0.00%    100.00% |           0      0.00%    100.00% |           0      0.00%    100.00% (Unspecified)
system.caches.RequestType.ST.hit_latency_hist_seqr::total     29449555                       (Unspecified)
system.caches.RequestType.ST.miss_latency_hist_seqr::bucket_size           64                       (Unspecified)
system.caches.RequestType.ST.miss_latency_hist_seqr::max_bucket          639                       (Unspecified)
system.caches.RequestType.ST.miss_latency_hist_seqr::samples         3449                       (Unspecified)
system.caches.RequestType.ST.miss_latency_hist_seqr::mean    71.176573                       (Unspecified)
system.caches.RequestType.ST.miss_latency_hist_seqr::gmean    66.734859                       (Unspecified)
system.caches.RequestType.ST.miss_latency_hist_seqr::stdev    33.111311                       (Unspecified)
system.caches.RequestType.ST.miss_latency_hist_seqr |        1670     48.42%     48.42% |        1638     47.49%     95.91% |          86      2.49%     98.41% |          19      0.55%     98.96% |          31      0.90%     99.86% |           4      0.12%     99.97% |           0      0.00%     99.97% |           1      0.03%    100.00% |           0      0.00%    100.00% |           0      0.00%    100.00% (Unspecified)
system.caches.RequestType.ST.miss_latency_hist_seqr::total         3449                       (Unspecified)
system.caches.RequestType.IFETCH.latency_hist_seqr::bucket_size           64                       (Unspecified)
system.caches.RequestType.IFETCH.latency_hist_seqr::max_bucket          639                       (Unspecified)
system.caches.RequestType.IFETCH.latency_hist_seqr::samples    273625213                       (Unspecified)
system.caches.RequestType.IFETCH.latency_hist_seqr::mean     1.001722                       (Unspecified)
system.caches.RequestType.IFETCH.latency_hist_seqr::gmean     1.000104                       (Unspecified)
system.caches.RequestType.IFETCH.latency_hist_seqr::stdev     0.380790                       (Unspecified)
system.caches.RequestType.IFETCH.latency_hist_seqr |   273623147    100.00%    100.00% |        1886      0.00%    100.00% |          63      0.00%    100.00% |          31      0.00%    100.00% |          59      0.00%    100.00% |          27      0.00%    100.00% |           0      0.00%    100.00% |           0      0.00%    100.00% |           0      0.00%    100.00% |           0      0.00%    100.00% (Unspecified)
system.caches.RequestType.IFETCH.latency_hist_seqr::total    273625213                       (Unspecified)
system.caches.RequestType.IFETCH.hit_latency_hist_seqr::bucket_size            1                       (Unspecified)
system.caches.RequestType.IFETCH.hit_latency_hist_seqr::max_bucket            9                       (Unspecified)
system.caches.RequestType.IFETCH.hit_latency_hist_seqr::samples    273618506                       (Unspecified)
system.caches.RequestType.IFETCH.hit_latency_hist_seqr::mean            1                       (Unspecified)
system.caches.RequestType.IFETCH.hit_latency_hist_seqr::gmean            1                       (Unspecified)
system.caches.RequestType.IFETCH.hit_latency_hist_seqr |           0      0.00%      0.00% |   273618506    100.00%    100.00% |           0      0.00%    100.00% |           0      0.00%    100.00% |           0      0.00%    100.00% |           0      0.00%    100.00% |           0      0.00%    100.00% |           0      0.00%    100.00% |           0      0.00%    100.00% |           0      0.00%    100.00% (Unspecified)
system.caches.RequestType.IFETCH.hit_latency_hist_seqr::total    273618506                       (Unspecified)
system.caches.RequestType.IFETCH.miss_latency_hist_seqr::bucket_size           64                       (Unspecified)
system.caches.RequestType.IFETCH.miss_latency_hist_seqr::max_bucket          639                       (Unspecified)
system.caches.RequestType.IFETCH.miss_latency_hist_seqr::samples         6707                       (Unspecified)
system.caches.RequestType.IFETCH.miss_latency_hist_seqr::mean    71.264500                       (Unspecified)
system.caches.RequestType.IFETCH.miss_latency_hist_seqr::gmean    68.361134                       (Unspecified)
system.caches.RequestType.IFETCH.miss_latency_hist_seqr::stdev    31.285103                       (Unspecified)
system.caches.RequestType.IFETCH.miss_latency_hist_seqr |        4641     69.20%     69.20% |        1886     28.12%     97.32% |          63      0.94%     98.26% |          31      0.46%     98.72% |          59      0.88%     99.60% |          27      0.40%    100.00% |           0      0.00%    100.00% |           0      0.00%    100.00% |           0      0.00%    100.00% |           0      0.00%    100.00% (Unspecified)
system.caches.RequestType.IFETCH.miss_latency_hist_seqr::total         6707                       (Unspecified)
system.caches.RequestType.RMW_Read.latency_hist_seqr::bucket_size           32                       (Unspecified)
system.caches.RequestType.RMW_Read.latency_hist_seqr::max_bucket          319                       (Unspecified)
system.caches.RequestType.RMW_Read.latency_hist_seqr::samples      1468979                       (Unspecified)
system.caches.RequestType.RMW_Read.latency_hist_seqr::mean     1.003061                       (Unspecified)
system.caches.RequestType.RMW_Read.latency_hist_seqr::gmean     1.000210                       (Unspecified)
system.caches.RequestType.RMW_Read.latency_hist_seqr::stdev     0.477035                       (Unspecified)
system.caches.RequestType.RMW_Read.latency_hist_seqr |     1468907    100.00%    100.00% |          56      0.00%    100.00% |          15      0.00%    100.00% |           0      0.00%    100.00% |           0      0.00%    100.00% |           0      0.00%    100.00% |           0      0.00%    100.00% |           0      0.00%    100.00% |           1      0.00%    100.00% |           0      0.00%    100.00% (Unspecified)
system.caches.RequestType.RMW_Read.latency_hist_seqr::total      1468979                       (Unspecified)
system.caches.RequestType.RMW_Read.hit_latency_hist_seqr::bucket_size            1                       (Unspecified)
system.caches.RequestType.RMW_Read.hit_latency_hist_seqr::max_bucket            9                       (Unspecified)
system.caches.RequestType.RMW_Read.hit_latency_hist_seqr::samples      1468902                       (Unspecified)
system.caches.RequestType.RMW_Read.hit_latency_hist_seqr::mean            1                       (Unspecified)
system.caches.RequestType.RMW_Read.hit_latency_hist_seqr::gmean            1                       (Unspecified)
system.caches.RequestType.RMW_Read.hit_latency_hist_seqr |           0      0.00%      0.00% |     1468902    100.00%    100.00% |           0      0.00%    100.00% |           0      0.00%    100.00% |           0      0.00%    100.00% |           0      0.00%    100.00% |           0      0.00%    100.00% |           0      0.00%    100.00% |           0      0.00%    100.00% |           0      0.00%    100.00% (Unspecified)
system.caches.RequestType.RMW_Read.hit_latency_hist_seqr::total      1468902                       (Unspecified)
system.caches.RequestType.RMW_Read.miss_latency_hist_seqr::bucket_size           32                       (Unspecified)
system.caches.RequestType.RMW_Read.miss_latency_hist_seqr::max_bucket          319                       (Unspecified)
system.caches.RequestType.RMW_Read.miss_latency_hist_seqr::samples           77                       (Unspecified)
system.caches.RequestType.RMW_Read.miss_latency_hist_seqr::mean    59.389610                       (Unspecified)
system.caches.RequestType.RMW_Read.miss_latency_hist_seqr::gmean    54.818257                       (Unspecified)
system.caches.RequestType.RMW_Read.miss_latency_hist_seqr::stdev    30.731929                       (Unspecified)
system.caches.RequestType.RMW_Read.miss_latency_hist_seqr |           5      6.49%      6.49% |          56     72.73%     79.22% |          15     19.48%     98.70% |           0      0.00%     98.70% |           0      0.00%     98.70% |           0      0.00%     98.70% |           0      0.00%     98.70% |           0      0.00%     98.70% |           1      1.30%    100.00% |           0      0.00%    100.00% (Unspecified)
system.caches.RequestType.RMW_Read.miss_latency_hist_seqr::total           77                       (Unspecified)
system.caches.RequestType.Locked_RMW_Read.latency_hist_seqr::bucket_size           32                       (Unspecified)
system.caches.RequestType.Locked_RMW_Read.latency_hist_seqr::max_bucket          319                       (Unspecified)
system.caches.RequestType.Locked_RMW_Read.latency_hist_seqr::samples        65679                       (Unspecified)
system.caches.RequestType.Locked_RMW_Read.latency_hist_seqr::mean     1.036831                       (Unspecified)
system.caches.RequestType.Locked_RMW_Read.latency_hist_seqr::gmean     1.002506                       (Unspecified)
system.caches.RequestType.Locked_RMW_Read.latency_hist_seqr::stdev     1.804407                       (Unspecified)
system.caches.RequestType.Locked_RMW_Read.latency_hist_seqr |       65645     99.95%     99.95% |          20      0.03%     99.98% |          13      0.02%    100.00% |           0      0.00%    100.00% |           0      0.00%    100.00% |           0      0.00%    100.00% |           0      0.00%    100.00% |           0      0.00%    100.00% |           0      0.00%    100.00% |           1      0.00%    100.00% (Unspecified)
system.caches.RequestType.Locked_RMW_Read.latency_hist_seqr::total        65679                       (Unspecified)
system.caches.RequestType.Locked_RMW_Read.hit_latency_hist_seqr::bucket_size            1                       (Unspecified)
system.caches.RequestType.Locked_RMW_Read.hit_latency_hist_seqr::max_bucket            9                       (Unspecified)
system.caches.RequestType.Locked_RMW_Read.hit_latency_hist_seqr::samples        65637                       (Unspecified)
system.caches.RequestType.Locked_RMW_Read.hit_latency_hist_seqr::mean            1                       (Unspecified)
system.caches.RequestType.Locked_RMW_Read.hit_latency_hist_seqr::gmean            1                       (Unspecified)
system.caches.RequestType.Locked_RMW_Read.hit_latency_hist_seqr |           0      0.00%      0.00% |       65637    100.00%    100.00% |           0      0.00%    100.00% |           0      0.00%    100.00% |           0      0.00%    100.00% |           0      0.00%    100.00% |           0      0.00%    100.00% |           0      0.00%    100.00% |           0      0.00%    100.00% |           0      0.00%    100.00% (Unspecified)
system.caches.RequestType.Locked_RMW_Read.hit_latency_hist_seqr::total        65637                       (Unspecified)
system.caches.RequestType.Locked_RMW_Read.miss_latency_hist_seqr::bucket_size           32                       (Unspecified)
system.caches.RequestType.Locked_RMW_Read.miss_latency_hist_seqr::max_bucket          319                       (Unspecified)
system.caches.RequestType.Locked_RMW_Read.miss_latency_hist_seqr::samples           42                       (Unspecified)
system.caches.RequestType.Locked_RMW_Read.miss_latency_hist_seqr::mean    58.595238                       (Unspecified)
system.caches.RequestType.Locked_RMW_Read.miss_latency_hist_seqr::gmean    50.124145                       (Unspecified)
system.caches.RequestType.Locked_RMW_Read.miss_latency_hist_seqr::stdev    42.657490                       (Unspecified)
system.caches.RequestType.Locked_RMW_Read.miss_latency_hist_seqr |           8     19.05%     19.05% |          20     47.62%     66.67% |          13     30.95%     97.62% |           0      0.00%     97.62% |           0      0.00%     97.62% |           0      0.00%     97.62% |           0      0.00%     97.62% |           0      0.00%     97.62% |           0      0.00%     97.62% |           1      2.38%    100.00% (Unspecified)
system.caches.RequestType.Locked_RMW_Read.miss_latency_hist_seqr::total           42                       (Unspecified)
system.caches.RequestType.Locked_RMW_Write.latency_hist_seqr::bucket_size            1                       (Unspecified)
system.caches.RequestType.Locked_RMW_Write.latency_hist_seqr::max_bucket            9                       (Unspecified)
system.caches.RequestType.Locked_RMW_Write.latency_hist_seqr::samples        65679                       (Unspecified)
system.caches.RequestType.Locked_RMW_Write.latency_hist_seqr::mean            1                       (Unspecified)
system.caches.RequestType.Locked_RMW_Write.latency_hist_seqr::gmean            1                       (Unspecified)
system.caches.RequestType.Locked_RMW_Write.latency_hist_seqr |           0      0.00%      0.00% |       65679    100.00%    100.00% |           0      0.00%    100.00% |           0      0.00%    100.00% |           0      0.00%    100.00% |           0      0.00%    100.00% |           0      0.00%    100.00% |           0      0.00%    100.00% |           0      0.00%    100.00% |           0      0.00%    100.00% (Unspecified)
system.caches.RequestType.Locked_RMW_Write.latency_hist_seqr::total        65679                       (Unspecified)
system.caches.RequestType.Locked_RMW_Write.hit_latency_hist_seqr::bucket_size            1                       (Unspecified)
system.caches.RequestType.Locked_RMW_Write.hit_latency_hist_seqr::max_bucket            9                       (Unspecified)
system.caches.RequestType.Locked_RMW_Write.hit_latency_hist_seqr::samples        65679                       (Unspecified)
system.caches.RequestType.Locked_RMW_Write.hit_latency_hist_seqr::mean            1                       (Unspecified)
system.caches.RequestType.Locked_RMW_Write.hit_latency_hist_seqr::gmean            1                       (Unspecified)
system.caches.RequestType.Locked_RMW_Write.hit_latency_hist_seqr |           0      0.00%      0.00% |       65679    100.00%    100.00% |           0      0.00%    100.00% |           0      0.00%    100.00% |           0      0.00%    100.00% |           0      0.00%    100.00% |           0      0.00%    100.00% |           0      0.00%    100.00% |           0      0.00%    100.00% |           0      0.00%    100.00% (Unspecified)
system.caches.RequestType.Locked_RMW_Write.hit_latency_hist_seqr::total        65679                       (Unspecified)
system.caches.RequestTypeMachineType.LD.L1Cache.miss_type_mach_latency_hist_seqr::bucket_size            4                       (Unspecified)
system.caches.RequestTypeMachineType.LD.L1Cache.miss_type_mach_latency_hist_seqr::max_bucket           39                       (Unspecified)
system.caches.RequestTypeMachineType.LD.L1Cache.miss_type_mach_latency_hist_seqr::samples           12                       (Unspecified)
system.caches.RequestTypeMachineType.LD.L1Cache.miss_type_mach_latency_hist_seqr::mean           21                       (Unspecified)
system.caches.RequestTypeMachineType.LD.L1Cache.miss_type_mach_latency_hist_seqr::gmean    20.396078                       (Unspecified)
system.caches.RequestTypeMachineType.LD.L1Cache.miss_type_mach_latency_hist_seqr::stdev     5.222330                       (Unspecified)
system.caches.RequestTypeMachineType.LD.L1Cache.miss_type_mach_latency_hist_seqr |           0      0.00%      0.00% |           0      0.00%      0.00% |           0      0.00%      0.00% |           0      0.00%      0.00% |           6     50.00%     50.00% |           0      0.00%     50.00% |           6     50.00%    100.00% |           0      0.00%    100.00% |           0      0.00%    100.00% |           0      0.00%    100.00% (Unspecified)
system.caches.RequestTypeMachineType.LD.L1Cache.miss_type_mach_latency_hist_seqr::total           12                       (Unspecified)
system.caches.RequestTypeMachineType.LD.Directory.miss_type_mach_latency_hist_seqr::bucket_size           64                       (Unspecified)
system.caches.RequestTypeMachineType.LD.Directory.miss_type_mach_latency_hist_seqr::max_bucket          639                       (Unspecified)
system.caches.RequestTypeMachineType.LD.Directory.miss_type_mach_latency_hist_seqr::samples         8314                       (Unspecified)
system.caches.RequestTypeMachineType.LD.Directory.miss_type_mach_latency_hist_seqr::mean    71.467645                       (Unspecified)
system.caches.RequestTypeMachineType.LD.Directory.miss_type_mach_latency_hist_seqr::gmean    67.013218                       (Unspecified)
system.caches.RequestTypeMachineType.LD.Directory.miss_type_mach_latency_hist_seqr::stdev    34.287064                       (Unspecified)
system.caches.RequestTypeMachineType.LD.Directory.miss_type_mach_latency_hist_seqr |        4739     57.00%     57.00% |        3304     39.74%     96.74% |         111      1.34%     98.08% |          63      0.76%     98.83% |          59      0.71%     99.54% |          38      0.46%    100.00% |           0      0.00%    100.00% |           0      0.00%    100.00% |           0      0.00%    100.00% |           0      0.00%    100.00% (Unspecified)
system.caches.RequestTypeMachineType.LD.Directory.miss_type_mach_latency_hist_seqr::total         8314                       (Unspecified)
system.caches.RequestTypeMachineType.ST.L1Cache.miss_type_mach_latency_hist_seqr::bucket_size            4                       (Unspecified)
system.caches.RequestTypeMachineType.ST.L1Cache.miss_type_mach_latency_hist_seqr::max_bucket           39                       (Unspecified)
system.caches.RequestTypeMachineType.ST.L1Cache.miss_type_mach_latency_hist_seqr::samples            6                       (Unspecified)
system.caches.RequestTypeMachineType.ST.L1Cache.miss_type_mach_latency_hist_seqr::mean    17.666667                       (Unspecified)
system.caches.RequestTypeMachineType.ST.L1Cache.miss_type_mach_latency_hist_seqr::gmean    17.348511                       (Unspecified)
system.caches.RequestTypeMachineType.ST.L1Cache.miss_type_mach_latency_hist_seqr::stdev     4.082483                       (Unspecified)
system.caches.RequestTypeMachineType.ST.L1Cache.miss_type_mach_latency_hist_seqr |           0      0.00%      0.00% |           0      0.00%      0.00% |           0      0.00%      0.00% |           0      0.00%      0.00% |           5     83.33%     83.33% |           0      0.00%     83.33% |           1     16.67%    100.00% |           0      0.00%    100.00% |           0      0.00%    100.00% |           0      0.00%    100.00% (Unspecified)
system.caches.RequestTypeMachineType.ST.L1Cache.miss_type_mach_latency_hist_seqr::total            6                       (Unspecified)
system.caches.RequestTypeMachineType.ST.Directory.miss_type_mach_latency_hist_seqr::bucket_size           64                       (Unspecified)
system.caches.RequestTypeMachineType.ST.Directory.miss_type_mach_latency_hist_seqr::max_bucket          639                       (Unspecified)
system.caches.RequestTypeMachineType.ST.Directory.miss_type_mach_latency_hist_seqr::samples         3443                       (Unspecified)
system.caches.RequestTypeMachineType.ST.Directory.miss_type_mach_latency_hist_seqr::mean    71.269823                       (Unspecified)
system.caches.RequestTypeMachineType.ST.Directory.miss_type_mach_latency_hist_seqr::gmean    66.891720                       (Unspecified)
system.caches.RequestTypeMachineType.ST.Directory.miss_type_mach_latency_hist_seqr::stdev    33.064269                       (Unspecified)
system.caches.RequestTypeMachineType.ST.Directory.miss_type_mach_latency_hist_seqr |        1664     48.33%     48.33% |        1638     47.57%     95.90% |          86      2.50%     98.40% |          19      0.55%     98.95% |          31      0.90%     99.85% |           4      0.12%     99.97% |           0      0.00%     99.97% |           1      0.03%    100.00% |           0      0.00%    100.00% |           0      0.00%    100.00% (Unspecified)
system.caches.RequestTypeMachineType.ST.Directory.miss_type_mach_latency_hist_seqr::total         3443                       (Unspecified)
system.caches.RequestTypeMachineType.IFETCH.Directory.miss_type_mach_latency_hist_seqr::bucket_size           64                       (Unspecified)
system.caches.RequestTypeMachineType.IFETCH.Directory.miss_type_mach_latency_hist_seqr::max_bucket          639                       (Unspecified)
system.caches.RequestTypeMachineType.IFETCH.Directory.miss_type_mach_latency_hist_seqr::samples         6707                       (Unspecified)
system.caches.RequestTypeMachineType.IFETCH.Directory.miss_type_mach_latency_hist_seqr::mean    71.264500                       (Unspecified)
system.caches.RequestTypeMachineType.IFETCH.Directory.miss_type_mach_latency_hist_seqr::gmean    68.361134                       (Unspecified)
system.caches.RequestTypeMachineType.IFETCH.Directory.miss_type_mach_latency_hist_seqr::stdev    31.285103                       (Unspecified)
system.caches.RequestTypeMachineType.IFETCH.Directory.miss_type_mach_latency_hist_seqr |        4641     69.20%     69.20% |        1886     28.12%     97.32% |          63      0.94%     98.26% |          31      0.46%     98.72% |          59      0.88%     99.60% |          27      0.40%    100.00% |           0      0.00%    100.00% |           0      0.00%    100.00% |           0      0.00%    100.00% |           0      0.00%    100.00% (Unspecified)
system.caches.RequestTypeMachineType.IFETCH.Directory.miss_type_mach_latency_hist_seqr::total         6707                       (Unspecified)
system.caches.RequestTypeMachineType.RMW_Read.L1Cache.miss_type_mach_latency_hist_seqr::bucket_size            2                       (Unspecified)
system.caches.RequestTypeMachineType.RMW_Read.L1Cache.miss_type_mach_latency_hist_seqr::max_bucket           19                       (Unspecified)
system.caches.RequestTypeMachineType.RMW_Read.L1Cache.miss_type_mach_latency_hist_seqr::samples            1                       (Unspecified)
system.caches.RequestTypeMachineType.RMW_Read.L1Cache.miss_type_mach_latency_hist_seqr::mean           16                       (Unspecified)
system.caches.RequestTypeMachineType.RMW_Read.L1Cache.miss_type_mach_latency_hist_seqr::gmean    16.000000                       (Unspecified)
system.caches.RequestTypeMachineType.RMW_Read.L1Cache.miss_type_mach_latency_hist_seqr::stdev          nan                       (Unspecified)
system.caches.RequestTypeMachineType.RMW_Read.L1Cache.miss_type_mach_latency_hist_seqr |           0      0.00%      0.00% |           0      0.00%      0.00% |           0      0.00%      0.00% |           0      0.00%      0.00% |           0      0.00%      0.00% |           0      0.00%      0.00% |           0      0.00%      0.00% |           0      0.00%      0.00% |           1    100.00%    100.00% |           0      0.00%    100.00% (Unspecified)
system.caches.RequestTypeMachineType.RMW_Read.L1Cache.miss_type_mach_latency_hist_seqr::total            1                       (Unspecified)
system.caches.RequestTypeMachineType.RMW_Read.Directory.miss_type_mach_latency_hist_seqr::bucket_size           32                       (Unspecified)
system.caches.RequestTypeMachineType.RMW_Read.Directory.miss_type_mach_latency_hist_seqr::max_bucket          319                       (Unspecified)
system.caches.RequestTypeMachineType.RMW_Read.Directory.miss_type_mach_latency_hist_seqr::samples           76                       (Unspecified)
system.caches.RequestTypeMachineType.RMW_Read.Directory.miss_type_mach_latency_hist_seqr::mean    59.960526                       (Unspecified)
system.caches.RequestTypeMachineType.RMW_Read.Directory.miss_type_mach_latency_hist_seqr::gmean    55.713717                       (Unspecified)
system.caches.RequestTypeMachineType.RMW_Read.Directory.miss_type_mach_latency_hist_seqr::stdev    30.522316                       (Unspecified)
system.caches.RequestTypeMachineType.RMW_Read.Directory.miss_type_mach_latency_hist_seqr |           4      5.26%      5.26% |          56     73.68%     78.95% |          15     19.74%     98.68% |           0      0.00%     98.68% |           0      0.00%     98.68% |           0      0.00%     98.68% |           0      0.00%     98.68% |           0      0.00%     98.68% |           1      1.32%    100.00% |           0      0.00%    100.00% (Unspecified)
system.caches.RequestTypeMachineType.RMW_Read.Directory.miss_type_mach_latency_hist_seqr::total           76                       (Unspecified)
system.caches.RequestTypeMachineType.Locked_RMW_Read.L1Cache.miss_type_mach_latency_hist_seqr::bucket_size            2                       (Unspecified)
system.caches.RequestTypeMachineType.Locked_RMW_Read.L1Cache.miss_type_mach_latency_hist_seqr::max_bucket           19                       (Unspecified)
system.caches.RequestTypeMachineType.Locked_RMW_Read.L1Cache.miss_type_mach_latency_hist_seqr::samples            2                       (Unspecified)
system.caches.RequestTypeMachineType.Locked_RMW_Read.L1Cache.miss_type_mach_latency_hist_seqr::mean           16                       (Unspecified)
system.caches.RequestTypeMachineType.Locked_RMW_Read.L1Cache.miss_type_mach_latency_hist_seqr::gmean    16.000000                       (Unspecified)
system.caches.RequestTypeMachineType.Locked_RMW_Read.L1Cache.miss_type_mach_latency_hist_seqr |           0      0.00%      0.00% |           0      0.00%      0.00% |           0      0.00%      0.00% |           0      0.00%      0.00% |           0      0.00%      0.00% |           0      0.00%      0.00% |           0      0.00%      0.00% |           0      0.00%      0.00% |           2    100.00%    100.00% |           0      0.00%    100.00% (Unspecified)
system.caches.RequestTypeMachineType.Locked_RMW_Read.L1Cache.miss_type_mach_latency_hist_seqr::total            2                       (Unspecified)
system.caches.RequestTypeMachineType.Locked_RMW_Read.Directory.miss_type_mach_latency_hist_seqr::bucket_size           32                       (Unspecified)
system.caches.RequestTypeMachineType.Locked_RMW_Read.Directory.miss_type_mach_latency_hist_seqr::max_bucket          319                       (Unspecified)
system.caches.RequestTypeMachineType.Locked_RMW_Read.Directory.miss_type_mach_latency_hist_seqr::samples           40                       (Unspecified)
system.caches.RequestTypeMachineType.Locked_RMW_Read.Directory.miss_type_mach_latency_hist_seqr::mean    60.725000                       (Unspecified)
system.caches.RequestTypeMachineType.Locked_RMW_Read.Directory.miss_type_mach_latency_hist_seqr::gmean    53.069296                       (Unspecified)
system.caches.RequestTypeMachineType.Locked_RMW_Read.Directory.miss_type_mach_latency_hist_seqr::stdev    42.606119                       (Unspecified)
system.caches.RequestTypeMachineType.Locked_RMW_Read.Directory.miss_type_mach_latency_hist_seqr |           6     15.00%     15.00% |          20     50.00%     65.00% |          13     32.50%     97.50% |           0      0.00%     97.50% |           0      0.00%     97.50% |           0      0.00%     97.50% |           0      0.00%     97.50% |           0      0.00%     97.50% |           0      0.00%     97.50% |           1      2.50%    100.00% (Unspecified)
system.caches.RequestTypeMachineType.Locked_RMW_Read.Directory.miss_type_mach_latency_hist_seqr::total           40                       (Unspecified)
system.caches.controllers0.fullyBusyCycles        68031                       # cycles for which number of transistions == max transitions (Unspecified)
system.caches.controllers0.cacheMemory.m_demand_hits            0                       # Number of cache demand hits (Unspecified)
system.caches.controllers0.cacheMemory.m_demand_misses            0                       # Number of cache demand misses (Unspecified)
system.caches.controllers0.cacheMemory.m_demand_accesses            0                       # Number of cache demand accesses (Unspecified)
system.caches.controllers0.forwardFromDir.m_buf_msgs     0.000010                       # Average number of messages in buffer (Unspecified)
system.caches.controllers0.forwardFromDir.m_stall_time  4999.888569                       # Average number of cycles messages are stalled in this MB (Unspecified)
system.caches.controllers0.mandatoryQueue.m_buf_msgs     0.016944                       # Average number of messages in buffer (Unspecified)
system.caches.controllers0.mandatoryQueue.m_stall_time  1006.037539                       # Average number of cycles messages are stalled in this MB (Unspecified)
system.caches.controllers0.power_state.pwrStateResidencyTicks::UNDEFINED 716588670000                       # Cumulative time (in ticks) in various power states (Tick)
system.caches.controllers0.requestToDir.m_buf_msgs     0.000020                       # Average number of messages in buffer (Unspecified)
system.caches.controllers0.requestToDir.m_stall_time   999.999997                       # Average number of cycles messages are stalled in this MB (Unspecified)
system.caches.controllers0.responseFromDirOrSibling.m_buf_msgs     0.000010                       # Average number of messages in buffer (Unspecified)
system.caches.controllers0.responseFromDirOrSibling.m_stall_time  4999.999491                       # Average number of cycles messages are stalled in this MB (Unspecified)
system.caches.controllers0.responseToDirOrSibling.m_buf_msgs     0.000000                       # Average number of messages in buffer (Unspecified)
system.caches.controllers0.responseToDirOrSibling.m_stall_time   965.633805                       # Average number of cycles messages are stalled in this MB (Unspecified)
system.caches.controllers1.fullyBusyCycles       105150                       # cycles for which number of transistions == max transitions (Unspecified)
system.caches.controllers1.cacheMemory.m_demand_hits            0                       # Number of cache demand hits (Unspecified)
system.caches.controllers1.cacheMemory.m_demand_misses            0                       # Number of cache demand misses (Unspecified)
system.caches.controllers1.cacheMemory.m_demand_accesses            0                       # Number of cache demand accesses (Unspecified)
system.caches.controllers1.forwardFromDir.m_buf_msgs     0.000015                       # Average number of messages in buffer (Unspecified)
system.caches.controllers1.forwardFromDir.m_stall_time  4828.162466                       # Average number of cycles messages are stalled in this MB (Unspecified)
system.caches.controllers1.mandatoryQueue.m_buf_msgs     0.482388                       # Average number of messages in buffer (Unspecified)
system.caches.controllers1.mandatoryQueue.m_stall_time   974.948635                       # Average number of cycles messages are stalled in this MB (Unspecified)
system.caches.controllers1.power_state.pwrStateResidencyTicks::UNDEFINED 716588670000                       # Cumulative time (in ticks) in various power states (Tick)
system.caches.controllers1.requestToDir.m_buf_msgs     0.000031                       # Average number of messages in buffer (Unspecified)
system.caches.controllers1.requestToDir.m_stall_time   965.633904                       # Average number of cycles messages are stalled in this MB (Unspecified)
system.caches.controllers1.responseFromDirOrSibling.m_buf_msgs     0.000016                       # Average number of messages in buffer (Unspecified)
system.caches.controllers1.responseFromDirOrSibling.m_stall_time  4828.169171                       # Average number of cycles messages are stalled in this MB (Unspecified)
system.caches.controllers1.responseToDirOrSibling.m_buf_msgs     0.000000                       # Average number of messages in buffer (Unspecified)
system.caches.controllers1.responseToDirOrSibling.m_stall_time   965.632492                       # Average number of cycles messages are stalled in this MB (Unspecified)
system.caches.controllers2.cacheMemory.m_demand_hits            0                       # Number of cache demand hits (Unspecified)
system.caches.controllers2.cacheMemory.m_demand_misses            0                       # Number of cache demand misses (Unspecified)
system.caches.controllers2.cacheMemory.m_demand_accesses            0                       # Number of cache demand accesses (Unspecified)
system.caches.controllers2.power_state.pwrStateResidencyTicks::UNDEFINED 716588670000                       # Cumulative time (in ticks) in various power states (Tick)
system.caches.controllers3.cacheMemory.m_demand_hits            0                       # Number of cache demand hits (Unspecified)
system.caches.controllers3.cacheMemory.m_demand_misses            0                       # Number of cache demand misses (Unspecified)
system.caches.controllers3.cacheMemory.m_demand_accesses            0                       # Number of cache demand accesses (Unspecified)
system.caches.controllers3.power_state.pwrStateResidencyTicks::UNDEFINED 716588670000                       # Cumulative time (in ticks) in various power states (Tick)
system.caches.controllers4.forwardToCache.m_buf_msgs     0.000025                       # Average number of messages in buffer (Unspecified)
system.caches.controllers4.forwardToCache.m_stall_time   999.997120                       # Average number of cycles messages are stalled in this MB (Unspecified)
system.caches.controllers4.power_state.pwrStateResidencyTicks::UNDEFINED 716588670000                       # Cumulative time (in ticks) in various power states (Tick)
system.caches.controllers4.requestFromCache.m_buf_msgs     0.000050                       # Average number of messages in buffer (Unspecified)
system.caches.controllers4.requestFromCache.m_stall_time  4999.999972                       # Average number of cycles messages are stalled in this MB (Unspecified)
system.caches.controllers4.requestToMemory.m_buf_msgs     0.000031                       # Average number of messages in buffer (Unspecified)
system.caches.controllers4.requestToMemory.m_stall_time   999.999990                       # Average number of cycles messages are stalled in this MB (Unspecified)
system.caches.controllers4.responseFromCache.m_buf_msgs     0.000000                       # Average number of messages in buffer (Unspecified)
system.caches.controllers4.responseFromCache.m_stall_time  4828.168997                       # Average number of cycles messages are stalled in this MB (Unspecified)
system.caches.controllers4.responseFromMemory.m_buf_msgs     0.000040                       # Average number of messages in buffer (Unspecified)
system.caches.controllers4.responseFromMemory.m_stall_time   999.999905                       # Average number of cycles messages are stalled in this MB (Unspecified)
system.caches.controllers4.responseToCache.m_buf_msgs     0.000026                       # Average number of messages in buffer (Unspecified)
system.caches.controllers4.responseToCache.m_stall_time   999.999904                       # Average number of cycles messages are stalled in this MB (Unspecified)
system.caches.network.msg_count.Control         99656                       (Unspecified)
system.caches.network.msg_byte.Control         797248                       (Unspecified)
system.caches.network.msg_count.Data            44162                       (Unspecified)
system.caches.network.msg_byte.Data           3179664                       (Unspecified)
system.caches.network.int_link_buffers11.m_buf_msgs     0.000000                       # Average number of messages in buffer (Unspecified)
system.caches.network.int_link_buffers11.m_stall_time  2896.901406                       # Average number of cycles messages are stalled in this MB (Unspecified)
system.caches.network.int_link_buffers14.m_buf_msgs     0.000000                       # Average number of messages in buffer (Unspecified)
system.caches.network.int_link_buffers14.m_stall_time  2896.897467                       # Average number of cycles messages are stalled in this MB (Unspecified)
system.caches.network.int_link_buffers2.m_buf_msgs     0.000000                       # Average number of messages in buffer (Unspecified)
system.caches.network.int_link_buffers2.m_stall_time  2896.901406                       # Average number of cycles messages are stalled in this MB (Unspecified)
system.caches.network.int_link_buffers21.m_buf_msgs     0.000031                       # Average number of messages in buffer (Unspecified)
system.caches.network.int_link_buffers21.m_stall_time  2896.901704                       # Average number of cycles messages are stalled in this MB (Unspecified)
system.caches.network.int_link_buffers23.m_buf_msgs     0.000000                       # Average number of messages in buffer (Unspecified)
system.caches.network.int_link_buffers23.m_stall_time  2896.897467                       # Average number of cycles messages are stalled in this MB (Unspecified)
system.caches.network.int_link_buffers49.m_buf_msgs     0.000010                       # Average number of messages in buffer (Unspecified)
system.caches.network.int_link_buffers49.m_stall_time  2999.933150                       # Average number of cycles messages are stalled in this MB (Unspecified)
system.caches.network.int_link_buffers50.m_buf_msgs     0.000010                       # Average number of messages in buffer (Unspecified)
system.caches.network.int_link_buffers50.m_stall_time  2999.999703                       # Average number of cycles messages are stalled in this MB (Unspecified)
system.caches.network.int_link_buffers52.m_buf_msgs     0.000015                       # Average number of messages in buffer (Unspecified)
system.caches.network.int_link_buffers52.m_stall_time  2896.897488                       # Average number of cycles messages are stalled in this MB (Unspecified)
system.caches.network.int_link_buffers53.m_buf_msgs     0.000016                       # Average number of messages in buffer (Unspecified)
system.caches.network.int_link_buffers53.m_stall_time  2896.901511                       # Average number of cycles messages are stalled in this MB (Unspecified)
system.caches.network.int_link_buffers9.m_buf_msgs     0.000020                       # Average number of messages in buffer (Unspecified)
system.caches.network.int_link_buffers9.m_stall_time  2999.999997                       # Average number of cycles messages are stalled in this MB (Unspecified)
system.caches.network.power_state.pwrStateResidencyTicks::UNDEFINED 716588670000                       # Cumulative time (in ticks) in various power states (Tick)
system.caches.network.routers0.percent_links_utilized     0.001339                       (Unspecified)
system.caches.network.routers0.msg_count.Control::0        12828                       (Unspecified)
system.caches.network.routers0.msg_count.Control::1         6834                       (Unspecified)
system.caches.network.routers0.msg_count.Control::2           19                       (Unspecified)
system.caches.network.routers0.msg_bytes.Control::0       102624                       (Unspecified)
system.caches.network.routers0.msg_bytes.Control::1        54672                       (Unspecified)
system.caches.network.routers0.msg_bytes.Control::2          152                       (Unspecified)
system.caches.network.routers0.msg_count.Data::0         1210                       (Unspecified)
system.caches.network.routers0.msg_count.Data::2         7262                       (Unspecified)
system.caches.network.routers0.msg_bytes.Data::0        87120                       (Unspecified)
system.caches.network.routers0.msg_bytes.Data::2       522864                       (Unspecified)
system.caches.network.routers0.port_buffers1.m_buf_msgs     0.000010                       # Average number of messages in buffer (Unspecified)
system.caches.network.routers0.port_buffers1.m_stall_time  3999.910861                       # Average number of cycles messages are stalled in this MB (Unspecified)
system.caches.network.routers0.port_buffers12.m_buf_msgs     0.000020                       # Average number of messages in buffer (Unspecified)
system.caches.network.routers0.port_buffers12.m_stall_time  2000.000006                       # Average number of cycles messages are stalled in this MB (Unspecified)
system.caches.network.routers0.port_buffers14.m_buf_msgs     0.000000                       # Average number of messages in buffer (Unspecified)
system.caches.network.routers0.port_buffers14.m_stall_time  1931.267607                       # Average number of cycles messages are stalled in this MB (Unspecified)
system.caches.network.routers0.port_buffers2.m_buf_msgs     0.000010                       # Average number of messages in buffer (Unspecified)
system.caches.network.routers0.port_buffers2.m_stall_time  3999.999598                       # Average number of cycles messages are stalled in this MB (Unspecified)
system.caches.network.routers0.port_buffers5.m_buf_msgs     0.000000                       # Average number of messages in buffer (Unspecified)
system.caches.network.routers0.port_buffers5.m_stall_time  1931.267607                       # Average number of cycles messages are stalled in this MB (Unspecified)
system.caches.network.routers0.power_state.pwrStateResidencyTicks::UNDEFINED 716588670000                       # Cumulative time (in ticks) in various power states (Tick)
system.caches.network.routers0.throttle00.link_utilization     0.005021                       (Unspecified)
system.caches.network.routers0.throttle00.msg_count.Control::1         6834                       (Unspecified)
system.caches.network.routers0.throttle00.msg_count.Control::2            5                       (Unspecified)
system.caches.network.routers0.throttle00.msg_bytes.Control::1        54672                       (Unspecified)
system.caches.network.routers0.throttle00.msg_bytes.Control::2           40                       (Unspecified)
system.caches.network.routers0.throttle00.msg_count.Data::2         7235                       (Unspecified)
system.caches.network.routers0.throttle00.msg_bytes.Data::2       520920                       (Unspecified)
system.caches.network.routers0.throttle01.link_utilization     0.000012                       (Unspecified)
system.caches.network.routers0.throttle01.msg_count.Control::2           14                       (Unspecified)
system.caches.network.routers0.throttle01.msg_bytes.Control::2          112                       (Unspecified)
system.caches.network.routers0.throttle01.msg_count.Data::2           17                       (Unspecified)
system.caches.network.routers0.throttle01.msg_bytes.Data::2         1224                       (Unspecified)
system.caches.network.routers0.throttle02.link_utilization            0                       (Unspecified)
system.caches.network.routers0.throttle03.link_utilization            0                       (Unspecified)
system.caches.network.routers0.throttle04.link_utilization     0.001661                       (Unspecified)
system.caches.network.routers0.throttle04.msg_count.Control::0        12828                       (Unspecified)
system.caches.network.routers0.throttle04.msg_bytes.Control::0       102624                       (Unspecified)
system.caches.network.routers0.throttle04.msg_count.Data::0         1210                       (Unspecified)
system.caches.network.routers0.throttle04.msg_count.Data::2           10                       (Unspecified)
system.caches.network.routers0.throttle04.msg_bytes.Data::0        87120                       (Unspecified)
system.caches.network.routers0.throttle04.msg_bytes.Data::2          720                       (Unspecified)
system.caches.network.routers1.percent_links_utilized     0.002133                       (Unspecified)
system.caches.network.routers1.msg_count.Control::0        19623                       (Unspecified)
system.caches.network.routers1.msg_count.Control::1        10524                       (Unspecified)
system.caches.network.routers1.msg_count.Control::2           19                       (Unspecified)
system.caches.network.routers1.msg_bytes.Control::0       156984                       (Unspecified)
system.caches.network.routers1.msg_bytes.Control::1        84192                       (Unspecified)
system.caches.network.routers1.msg_bytes.Control::2          152                       (Unspecified)
system.caches.network.routers1.msg_count.Data::0         2258                       (Unspecified)
system.caches.network.routers1.msg_count.Data::2        11372                       (Unspecified)
system.caches.network.routers1.msg_bytes.Data::0       162576                       (Unspecified)
system.caches.network.routers1.msg_bytes.Data::2       818784                       (Unspecified)
system.caches.network.routers1.port_buffers1.m_buf_msgs     0.000015                       # Average number of messages in buffer (Unspecified)
system.caches.network.routers1.port_buffers1.m_stall_time  3862.529978                       # Average number of cycles messages are stalled in this MB (Unspecified)
system.caches.network.routers1.port_buffers12.m_buf_msgs     0.000031                       # Average number of messages in buffer (Unspecified)
system.caches.network.routers1.port_buffers12.m_stall_time  1931.267805                       # Average number of cycles messages are stalled in this MB (Unspecified)
system.caches.network.routers1.port_buffers14.m_buf_msgs     0.000000                       # Average number of messages in buffer (Unspecified)
system.caches.network.routers1.port_buffers14.m_stall_time  1931.264981                       # Average number of cycles messages are stalled in this MB (Unspecified)
system.caches.network.routers1.port_buffers2.m_buf_msgs     0.000016                       # Average number of messages in buffer (Unspecified)
system.caches.network.routers1.port_buffers2.m_stall_time  3862.535343                       # Average number of cycles messages are stalled in this MB (Unspecified)
system.caches.network.routers1.port_buffers5.m_buf_msgs     0.000000                       # Average number of messages in buffer (Unspecified)
system.caches.network.routers1.port_buffers5.m_stall_time  1931.264981                       # Average number of cycles messages are stalled in this MB (Unspecified)
system.caches.network.routers1.power_state.pwrStateResidencyTicks::UNDEFINED 716588670000                       # Cumulative time (in ticks) in various power states (Tick)
system.caches.network.routers1.throttle00.link_utilization     0.007873                       (Unspecified)
system.caches.network.routers1.throttle00.msg_count.Control::1        10524                       (Unspecified)
system.caches.network.routers1.throttle00.msg_count.Control::2           14                       (Unspecified)
system.caches.network.routers1.throttle00.msg_bytes.Control::1        84192                       (Unspecified)
system.caches.network.routers1.throttle00.msg_bytes.Control::2          112                       (Unspecified)
system.caches.network.routers1.throttle00.msg_count.Data::2        11366                       (Unspecified)
system.caches.network.routers1.throttle00.msg_bytes.Data::2       818352                       (Unspecified)
system.caches.network.routers1.throttle01.link_utilization     0.000003                       (Unspecified)
system.caches.network.routers1.throttle01.msg_count.Control::2            5                       (Unspecified)
system.caches.network.routers1.throttle01.msg_bytes.Control::2           40                       (Unspecified)
system.caches.network.routers1.throttle01.msg_count.Data::2            4                       (Unspecified)
system.caches.network.routers1.throttle01.msg_bytes.Data::2          288                       (Unspecified)
system.caches.network.routers1.throttle02.link_utilization            0                       (Unspecified)
system.caches.network.routers1.throttle03.link_utilization            0                       (Unspecified)
system.caches.network.routers1.throttle04.link_utilization     0.002788                       (Unspecified)
system.caches.network.routers1.throttle04.msg_count.Control::0        19623                       (Unspecified)
system.caches.network.routers1.throttle04.msg_bytes.Control::0       156984                       (Unspecified)
system.caches.network.routers1.throttle04.msg_count.Data::0         2258                       (Unspecified)
system.caches.network.routers1.throttle04.msg_count.Data::2            2                       (Unspecified)
system.caches.network.routers1.throttle04.msg_bytes.Data::0       162576                       (Unspecified)
system.caches.network.routers1.throttle04.msg_bytes.Data::2          144                       (Unspecified)
system.caches.network.routers2.percent_links_utilized            0                       (Unspecified)
system.caches.network.routers2.power_state.pwrStateResidencyTicks::UNDEFINED 716588670000                       # Cumulative time (in ticks) in various power states (Tick)
system.caches.network.routers2.throttle00.link_utilization            0                       (Unspecified)
[...]
system.mem_ctrl.rdPerTurnAround::128-159            7      3.30%     89.15% # Reads before turning the bus around for writes (Count)
system.mem_ctrl.rdPerTurnAround::160-191            4      1.89%     91.04% # Reads before turning the bus around for writes (Count)
system.mem_ctrl.rdPerTurnAround::192-223            2      0.94%     91.98% # Reads before turning the bus around for writes (Count)
system.mem_ctrl.rdPerTurnAround::224-255            4      1.89%     93.87% # Reads before turning the bus around for writes (Count)
system.mem_ctrl.rdPerTurnAround::256-287            6      2.83%     96.70% # Reads before turning the bus around for writes (Count)
system.mem_ctrl.rdPerTurnAround::288-319            1      0.47%     97.17% # Reads before turning the bus around for writes (Count)
system.mem_ctrl.rdPerTurnAround::320-351            1      0.47%     97.64% # Reads before turning the bus around for writes (Count)
system.mem_ctrl.rdPerTurnAround::352-383            3      1.42%     99.06% # Reads before turning the bus around for writes (Count)
system.mem_ctrl.rdPerTurnAround::736-767            1      0.47%     99.53% # Reads before turning the bus around for writes (Count)
system.mem_ctrl.rdPerTurnAround::928-959            1      0.47%    100.00% # Reads before turning the bus around for writes (Count)
system.mem_ctrl.rdPerTurnAround::total            212                       # Reads before turning the bus around for writes (Count)
system.mem_ctrl.wrPerTurnAround::samples          212                       # Writes before turning the bus around for reads (Count)
system.mem_ctrl.wrPerTurnAround::mean       16.084906                       # Writes before turning the bus around for reads (Count)
system.mem_ctrl.wrPerTurnAround::gmean      16.080204                       # Writes before turning the bus around for reads (Count)
system.mem_ctrl.wrPerTurnAround::stdev       0.404194                       # Writes before turning the bus around for reads (Count)
system.mem_ctrl.wrPerTurnAround::16               203     95.75%     95.75% # Writes before turning the bus around for reads (Count)
system.mem_ctrl.wrPerTurnAround::18                 9      4.25%    100.00% # Writes before turning the bus around for reads (Count)
system.mem_ctrl.wrPerTurnAround::total            212                       # Writes before turning the bus around for reads (Count)
system.mem_ctrl.bytesReadWrQ                    59520                       # Total number of bytes read from write queue (Byte)
system.mem_ctrl.bytesReadSys                  1189120                       # Total read bytes from the system interface side (Byte)
system.mem_ctrl.bytesWrittenSys                222720                       # Total written bytes from the system interface side (Byte)
system.mem_ctrl.avgRdBWSys               1659417.80798739                       # Average system read bandwidth in Byte/s ((Byte/Second))
system.mem_ctrl.avgWrBWSys               310805.91882649                       # Average system write bandwidth in Byte/s ((Byte/Second))
system.mem_ctrl.totGap                   716588611000                       # Total gap between requests (Tick)
system.mem_ctrl.avgGap                    32483617.91                       # Average gap between requests ((Tick/Count))
system.mem_ctrl.requestorReadBytes::caches.controllers4      1129600                       # Per-requestor bytes read from memory (Byte)
system.mem_ctrl.requestorWriteBytes::caches.controllers4       218240                       # Per-requestor bytes write to memory (Byte)
system.mem_ctrl.requestorReadRate::caches.controllers4 1576357.605542381760                       # Per-requestor bytes read from memory rate ((Byte/Second))
system.mem_ctrl.requestorWriteRate::caches.controllers4 304554.075631700922                       # Per-requestor bytes write to memory rate ((Byte/Second))
system.mem_ctrl.requestorReadAccesses::caches.controllers4        18580                       # Per-requestor read serviced memory accesses (Count)
system.mem_ctrl.requestorWriteAccesses::caches.controllers4         3480                       # Per-requestor write serviced memory accesses (Count)
system.mem_ctrl.requestorReadTotalLat::caches.controllers4    541096000                       # Per-requestor read total memory access latency (Tick)
system.mem_ctrl.requestorWriteTotalLat::caches.controllers4 17413394458750                       # Per-requestor write total memory access latency (Tick)
system.mem_ctrl.requestorReadAvgLat::caches.controllers4     29122.50                       # Per-requestor read average memory access latency ((Tick/Count))
system.mem_ctrl.requestorWriteAvgLat::caches.controllers4 5003848982.40                       # Per-requestor write average memory access latency ((Tick/Count))
system.mem_ctrl.dram.bytesRead::caches.controllers4      1189120                       # Number of bytes read from this memory (Byte)
system.mem_ctrl.dram.bytesRead::total         1189120                       # Number of bytes read from this memory (Byte)
system.mem_ctrl.dram.bytesWritten::caches.controllers4       222720                       # Number of bytes written to this memory (Byte)
system.mem_ctrl.dram.bytesWritten::total       222720                       # Number of bytes written to this memory (Byte)
system.mem_ctrl.dram.numReads::caches.controllers4        18580                       # Number of read requests responded to by this memory (Count)
system.mem_ctrl.dram.numReads::total            18580                       # Number of read requests responded to by this memory (Count)
system.mem_ctrl.dram.numWrites::caches.controllers4         3480                       # Number of write requests responded to by this memory (Count)
system.mem_ctrl.dram.numWrites::total            3480                       # Number of write requests responded to by this memory (Count)
system.mem_ctrl.dram.bwRead::caches.controllers4      1659418                       # Total read bandwidth from this memory ((Byte/Second))
system.mem_ctrl.dram.bwRead::total            1659418                       # Total read bandwidth from this memory ((Byte/Second))
system.mem_ctrl.dram.bwWrite::caches.controllers4       310806                       # Write bandwidth from this memory ((Byte/Second))
system.mem_ctrl.dram.bwWrite::total            310806                       # Write bandwidth from this memory ((Byte/Second))
system.mem_ctrl.dram.bwTotal::caches.controllers4      1970224                       # Total bandwidth to/from this memory ((Byte/Second))
system.mem_ctrl.dram.bwTotal::total           1970224                       # Total bandwidth to/from this memory ((Byte/Second))
system.mem_ctrl.dram.readBursts                 17650                       # Number of DRAM read bursts (Count)
system.mem_ctrl.dram.writeBursts                 3410                       # Number of DRAM write bursts (Count)
system.mem_ctrl.dram.perBankRdBursts::0          1476                       # Per bank write bursts (Count)
system.mem_ctrl.dram.perBankRdBursts::1          1331                       # Per bank write bursts (Count)
system.mem_ctrl.dram.perBankRdBursts::2           663                       # Per bank write bursts (Count)
system.mem_ctrl.dram.perBankRdBursts::3           862                       # Per bank write bursts (Count)
system.mem_ctrl.dram.perBankRdBursts::4          1346                       # Per bank write bursts (Count)
system.mem_ctrl.dram.perBankRdBursts::5           719                       # Per bank write bursts (Count)
system.mem_ctrl.dram.perBankRdBursts::6           640                       # Per bank write bursts (Count)
system.mem_ctrl.dram.perBankRdBursts::7          1630                       # Per bank write bursts (Count)
system.mem_ctrl.dram.perBankRdBursts::8           894                       # Per bank write bursts (Count)
system.mem_ctrl.dram.perBankRdBursts::9          1164                       # Per bank write bursts (Count)
system.mem_ctrl.dram.perBankRdBursts::10         2217                       # Per bank write bursts (Count)
system.mem_ctrl.dram.perBankRdBursts::11         1996                       # Per bank write bursts (Count)
system.mem_ctrl.dram.perBankRdBursts::12         1227                       # Per bank write bursts (Count)
system.mem_ctrl.dram.perBankRdBursts::13          936                       # Per bank write bursts (Count)
system.mem_ctrl.dram.perBankRdBursts::14          292                       # Per bank write bursts (Count)
system.mem_ctrl.dram.perBankRdBursts::15          257                       # Per bank write bursts (Count)
system.mem_ctrl.dram.perBankWrBursts::0           191                       # Per bank write bursts (Count)
system.mem_ctrl.dram.perBankWrBursts::1           195                       # Per bank write bursts (Count)
system.mem_ctrl.dram.perBankWrBursts::2           164                       # Per bank write bursts (Count)
system.mem_ctrl.dram.perBankWrBursts::3           148                       # Per bank write bursts (Count)
system.mem_ctrl.dram.perBankWrBursts::4           108                       # Per bank write bursts (Count)
system.mem_ctrl.dram.perBankWrBursts::5            66                       # Per bank write bursts (Count)
system.mem_ctrl.dram.perBankWrBursts::6           147                       # Per bank write bursts (Count)
system.mem_ctrl.dram.perBankWrBursts::7           434                       # Per bank write bursts (Count)
system.mem_ctrl.dram.perBankWrBursts::8           243                       # Per bank write bursts (Count)
system.mem_ctrl.dram.perBankWrBursts::9           308                       # Per bank write bursts (Count)
system.mem_ctrl.dram.perBankWrBursts::10          759                       # Per bank write bursts (Count)
system.mem_ctrl.dram.perBankWrBursts::11            1                       # Per bank write bursts (Count)
system.mem_ctrl.dram.perBankWrBursts::12           53                       # Per bank write bursts (Count)
system.mem_ctrl.dram.perBankWrBursts::13          593                       # Per bank write bursts (Count)
system.mem_ctrl.dram.perBankWrBursts::14            0                       # Per bank write bursts (Count)
system.mem_ctrl.dram.perBankWrBursts::15            0                       # Per bank write bursts (Count)
system.mem_ctrl.dram.totQLat                210158500                       # Total ticks spent queuing (Tick)
system.mem_ctrl.dram.totBusLat               88250000                       # Total ticks spent in databus transfers (Tick)
system.mem_ctrl.dram.totMemAccLat           541096000                       # Total ticks spent from burst creation until serviced by the DRAM (Tick)
system.mem_ctrl.dram.avgQLat                 11907.00                       # Average queueing delay per DRAM burst ((Tick/Count))
system.mem_ctrl.dram.avgBusLat                5000.00                       # Average bus latency per DRAM burst ((Tick/Count))
system.mem_ctrl.dram.avgMemAccLat            30657.00                       # Average memory access latency per DRAM burst ((Tick/Count))
system.mem_ctrl.dram.readRowHits                10296                       # Number of row buffer hits during reads (Count)
system.mem_ctrl.dram.writeRowHits                2996                       # Number of row buffer hits during writes (Count)
system.mem_ctrl.dram.readRowHitRate             58.33                       # Row buffer hit rate for reads (Ratio)
system.mem_ctrl.dram.writeRowHitRate            87.86                       # Row buffer hit rate for writes (Ratio)
system.mem_ctrl.dram.bytesPerActivate::samples         7762                       # Bytes accessed per row activation (Byte)
system.mem_ctrl.dram.bytesPerActivate::mean   173.505797                       # Bytes accessed per row activation (Byte)
system.mem_ctrl.dram.bytesPerActivate::gmean   122.366592                       # Bytes accessed per row activation (Byte)
system.mem_ctrl.dram.bytesPerActivate::stdev   196.187247                       # Bytes accessed per row activation (Byte)
system.mem_ctrl.dram.bytesPerActivate::0-127         3647     46.99%     46.99% # Bytes accessed per row activation (Byte)
system.mem_ctrl.dram.bytesPerActivate::128-255         2828     36.43%     83.42% # Bytes accessed per row activation (Byte)
system.mem_ctrl.dram.bytesPerActivate::256-383          572      7.37%     90.79% # Bytes accessed per row activation (Byte)
system.mem_ctrl.dram.bytesPerActivate::384-511          183      2.36%     93.15% # Bytes accessed per row activation (Byte)
system.mem_ctrl.dram.bytesPerActivate::512-639          131      1.69%     94.83% # Bytes accessed per row activation (Byte)
system.mem_ctrl.dram.bytesPerActivate::640-767           96      1.24%     96.07% # Bytes accessed per row activation (Byte)
system.mem_ctrl.dram.bytesPerActivate::768-895           56      0.72%     96.79% # Bytes accessed per row activation (Byte)
system.mem_ctrl.dram.bytesPerActivate::896-1023           54      0.70%     97.49% # Bytes accessed per row activation (Byte)
system.mem_ctrl.dram.bytesPerActivate::1024-1151          195      2.51%    100.00% # Bytes accessed per row activation (Byte)
system.mem_ctrl.dram.bytesPerActivate::total         7762                       # Bytes accessed per row activation (Byte)
system.mem_ctrl.dram.bytesRead                1129600                       # Total number of bytes read from DRAM (Byte)
system.mem_ctrl.dram.bytesWritten              218240                       # Total number of bytes written to DRAM (Byte)
system.mem_ctrl.dram.avgRdBW                 1.576358                       # Average DRAM read bandwidth in MiBytes/s ((Byte/Second))
system.mem_ctrl.dram.avgWrBW                 0.304554                       # Average DRAM write bandwidth in MiBytes/s ((Byte/Second))
system.mem_ctrl.dram.peakBW                  12800.00                       # Theoretical peak bandwidth in MiByte/s ((Byte/Second))
system.mem_ctrl.dram.busUtil                     0.01                       # Data bus utilization in percentage (Ratio)
system.mem_ctrl.dram.busUtilRead                 0.01                       # Data bus utilization in percentage for reads (Ratio)
system.mem_ctrl.dram.busUtilWrite                0.00                       # Data bus utilization in percentage for writes (Ratio)
system.mem_ctrl.dram.pageHitRate                63.11                       # Row buffer hit rate, read and write combined (Ratio)
system.mem_ctrl.dram.power_state.pwrStateResidencyTicks::UNDEFINED 716588670000                       # Cumulative time (in ticks) in various power states (Tick)
system.mem_ctrl.dram.rank0.actEnergy         27239100                       # Energy for activate commands per rank (pJ) (Joule)
system.mem_ctrl.dram.rank0.preEnergy         14470335                       # Energy for precharge commands per rank (pJ) (Joule)
system.mem_ctrl.dram.rank0.readEnergy        61882380                       # Energy for read commands per rank (pJ) (Joule)
system.mem_ctrl.dram.rank0.writeEnergy        7584660                       # Energy for write commands per rank (pJ) (Joule)
system.mem_ctrl.dram.rank0.refreshEnergy 56566548480.000008                       # Energy for refresh commands per rank (pJ) (Joule)
system.mem_ctrl.dram.rank0.actBackEnergy  14387246880                       # Energy for active background per rank (pJ) (Joule)
system.mem_ctrl.dram.rank0.preBackEnergy 263054472960                       # Energy for precharge background per rank (pJ) (Joule)
system.mem_ctrl.dram.rank0.actPowerDownEnergy            0                       # Energy for active power-down per rank (pJ) (Joule)
system.mem_ctrl.dram.rank0.prePowerDownEnergy            0                       # Energy for precharge power-down per rank (pJ) (Joule)
system.mem_ctrl.dram.rank0.selfRefreshEnergy            0                       # Energy for self refresh per rank (pJ) (Joule)
system.mem_ctrl.dram.rank0.totalEnergy   334119444795                       # Total energy per rank (pJ) (Joule)
system.mem_ctrl.dram.rank0.averagePower    466.263923                       # Core power per rank (mW) (Watt)
system.mem_ctrl.dram.rank0.totalIdleTime            0                       # Total Idle time Per DRAM Rank (Tick)
system.mem_ctrl.dram.rank0.pwrStateTime::IDLE 683746643250                       # Time in different power states (Tick)
system.mem_ctrl.dram.rank0.pwrStateTime::REF  23928320000                       # Time in different power states (Tick)
system.mem_ctrl.dram.rank0.pwrStateTime::SREF            0                       # Time in different power states (Tick)
system.mem_ctrl.dram.rank0.pwrStateTime::PRE_PDN            0                       # Time in different power states (Tick)
system.mem_ctrl.dram.rank0.pwrStateTime::ACT   8913706750                       # Time in different power states (Tick)
system.mem_ctrl.dram.rank0.pwrStateTime::ACT_PDN            0                       # Time in different power states (Tick)
system.mem_ctrl.dram.rank1.actEnergy         28224420                       # Energy for activate commands per rank (pJ) (Joule)
system.mem_ctrl.dram.rank1.preEnergy         14986455                       # Energy for precharge commands per rank (pJ) (Joule)
system.mem_ctrl.dram.rank1.readEnergy        64138620                       # Energy for read commands per rank (pJ) (Joule)
system.mem_ctrl.dram.rank1.writeEnergy       10215540                       # Energy for write commands per rank (pJ) (Joule)
system.mem_ctrl.dram.rank1.refreshEnergy 56566548480.000008                       # Energy for refresh commands per rank (pJ) (Joule)
system.mem_ctrl.dram.rank1.actBackEnergy  15339426180                       # Energy for active background per rank (pJ) (Joule)
system.mem_ctrl.dram.rank1.preBackEnergy 262252637760                       # Energy for precharge background per rank (pJ) (Joule)
system.mem_ctrl.dram.rank1.actPowerDownEnergy            0                       # Energy for active power-down per rank (pJ) (Joule)
system.mem_ctrl.dram.rank1.prePowerDownEnergy            0                       # Energy for precharge power-down per rank (pJ) (Joule)
system.mem_ctrl.dram.rank1.selfRefreshEnergy            0                       # Energy for self refresh per rank (pJ) (Joule)
system.mem_ctrl.dram.rank1.totalEnergy   334276177455                       # Total energy per rank (pJ) (Joule)
system.mem_ctrl.dram.rank1.averagePower    466.482644                       # Core power per rank (mW) (Watt)
system.mem_ctrl.dram.rank1.totalIdleTime            0                       # Total Idle time Per DRAM Rank (Tick)
system.mem_ctrl.dram.rank1.pwrStateTime::IDLE 681651578750                       # Time in different power states (Tick)
system.mem_ctrl.dram.rank1.pwrStateTime::REF  23928320000                       # Time in different power states (Tick)
system.mem_ctrl.dram.rank1.pwrStateTime::SREF            0                       # Time in different power states (Tick)
system.mem_ctrl.dram.rank1.pwrStateTime::PRE_PDN            0                       # Time in different power states (Tick)
system.mem_ctrl.dram.rank1.pwrStateTime::ACT  11008771250                       # Time in different power states (Tick)
system.mem_ctrl.dram.rank1.pwrStateTime::ACT_PDN            0                       # Time in different power states (Tick)
system.mem_ctrl.power_state.pwrStateResidencyTicks::UNDEFINED 716588670000                       # Cumulative time (in ticks) in various power states (Tick)
system.workload.inst.arm                            0                       # number of arm instructions executed (Count)
system.workload.inst.quiesce                        0                       # number of quiesce instructions executed (Count)

---------- End Simulation Statistics   ----------
