
---------- Begin Simulation Statistics ----------
simSeconds                                   0.005018                       # Number of seconds simulated (Second)
simTicks                                   5018310000                       # Number of ticks simulated (Tick)
finalTick                                  5018310000                       # Number of ticks from beginning of simulation (restored from checkpoints and never reset) (Tick)
simFreq                                  1000000000000                       # The number of ticks per simulated second ((Tick/Second))
hostSeconds                                      5.01                       # Real time elapsed on the host (Second)
hostTickRate                               1001973549                       # The number of ticks simulated per host second (ticks/s) ((Tick/Second))
hostMemory                                     788536                       # Number of bytes of host memory used (Byte)
simInsts                                      1391312                       # Number of instructions simulated (Count)
simOps                                        2266986                       # Number of ops (including micro ops) simulated (Count)
hostInstRate                                   277788                       # Simulator instruction rate (inst/s) ((Count/Second))
hostOpRate                                     452623                       # Simulator op (including micro ops) rate (op/s) ((Count/Second))
system.caches.m_outstandReqHistSeqr::bucket_size            1                       (Unspecified)
system.caches.m_outstandReqHistSeqr::max_bucket            9                       (Unspecified)
system.caches.m_outstandReqHistSeqr::samples      2311335                       (Unspecified)
system.caches.m_outstandReqHistSeqr::mean     1.000006                       (Unspecified)
system.caches.m_outstandReqHistSeqr::gmean     1.000004                       (Unspecified)
system.caches.m_outstandReqHistSeqr::stdev     0.002372                       (Unspecified)
system.caches.m_outstandReqHistSeqr      |           0      0.00%      0.00% |     2311322    100.00%    100.00% |          13      0.00%    100.00% |           0      0.00%    100.00% |           0      0.00%    100.00% |           0      0.00%    100.00% |           0      0.00%    100.00% |           0      0.00%    100.00% |           0      0.00%    100.00% |           0      0.00%    100.00% (Unspecified)
system.caches.m_outstandReqHistSeqr::total      2311335                       (Unspecified)
system.caches.m_latencyHistSeqr::bucket_size           64                       (Unspecified)
system.caches.m_latencyHistSeqr::max_bucket          639                       (Unspecified)
system.caches.m_latencyHistSeqr::samples      2311335                       (Unspecified)
system.caches.m_latencyHistSeqr::mean        1.171220                       (Unspecified)
system.caches.m_latencyHistSeqr::gmean       1.010584                       (Unspecified)
system.caches.m_latencyHistSeqr::stdev       3.769304                       (Unspecified)
system.caches.m_latencyHistSeqr          |     2309897     99.94%     99.94% |        1293      0.06%     99.99% |          49      0.00%    100.00% |          25      0.00%    100.00% |          45      0.00%    100.00% |          25      0.00%    100.00% |           0      0.00%    100.00% |           1      0.00%    100.00% |           0      0.00%    100.00% |           0      0.00%    100.00% (Unspecified)
system.caches.m_latencyHistSeqr::total        2311335                       (Unspecified)
system.caches.m_hitLatencyHistSeqr::bucket_size            1                       (Unspecified)
system.caches.m_hitLatencyHistSeqr::max_bucket            9                       (Unspecified)
system.caches.m_hitLatencyHistSeqr::samples      2305520                       (Unspecified)
system.caches.m_hitLatencyHistSeqr::mean            1                       (Unspecified)
system.caches.m_hitLatencyHistSeqr::gmean            1                       (Unspecified)
system.caches.m_hitLatencyHistSeqr       |           0      0.00%      0.00% |     2305520    100.00%    100.00% |           0      0.00%    100.00% |           0      0.00%    100.00% |           0      0.00%    100.00% |           0      0.00%    100.00% |           0      0.00%    100.00% |           0      0.00%    100.00% |           0      0.00%    100.00% |           0      0.00%    100.00% (Unspecified)
system.caches.m_hitLatencyHistSeqr::total      2305520                       (Unspecified)
system.caches.m_missLatencyHistSeqr::bucket_size           64                       (Unspecified)
system.caches.m_missLatencyHistSeqr::max_bucket          639                       (Unspecified)
system.caches.m_missLatencyHistSeqr::samples         5815                       (Unspecified)
system.caches.m_missLatencyHistSeqr::mean    69.056062                       (Unspecified)
system.caches.m_missLatencyHistSeqr::gmean    65.671842                       (Unspecified)
system.caches.m_missLatencyHistSeqr::stdev    32.053527                       (Unspecified)
system.caches.m_missLatencyHistSeqr      |        4377     75.27%     75.27% |        1293     22.24%     97.51% |          49      0.84%     98.35% |          25      0.43%     98.78% |          45      0.77%     99.55% |          25      0.43%     99.98% |           0      0.00%     99.98% |           1      0.02%    100.00% |           0      0.00%    100.00% |           0      0.00%    100.00% (Unspecified)
system.caches.m_missLatencyHistSeqr::total         5815                       (Unspecified)
system.caches.L1Cache_Controller.Load    |     2119326    100.00%    100.00% |           0      0.00%    100.00% |           0      0.00%    100.00% |           0      0.00%    100.00% (Unspecified)
system.caches.L1Cache_Controller.Load::total      2119326                       (Unspecified)
system.caches.L1Cache_Controller.Store   |      192009    100.00%    100.00% |           0      0.00%    100.00% |           0      0.00%    100.00% |           0      0.00%    100.00% (Unspecified)
system.caches.L1Cache_Controller.Store::total       192009                       (Unspecified)
system.caches.L1Cache_Controller.Replacement |     1741755    100.00%    100.00% |           0      0.00%    100.00% |           0      0.00%    100.00% |           0      0.00%    100.00% (Unspecified)
system.caches.L1Cache_Controller.Replacement::total      1741755                       (Unspecified)
system.caches.L1Cache_Controller.PutAck  |        5443    100.00%    100.00% |           0      0.00%    100.00% |           0      0.00%    100.00% |           0      0.00%    100.00% (Unspecified)
system.caches.L1Cache_Controller.PutAck::total         5443                       (Unspecified)
system.caches.L1Cache_Controller.DataDirNoAcks |        5815    100.00%    100.00% |           0      0.00%    100.00% |           0      0.00%    100.00% |           0      0.00%    100.00% (Unspecified)
system.caches.L1Cache_Controller.DataDirNoAcks::total         5815                       (Unspecified)
system.caches.L1Cache_Controller.I.Load  |        4964    100.00%    100.00% |           0      0.00%    100.00% |           0      0.00%    100.00% |           0      0.00%    100.00% (Unspecified)
system.caches.L1Cache_Controller.I.Load::total         4964                       (Unspecified)
system.caches.L1Cache_Controller.I.Store |         735    100.00%    100.00% |           0      0.00%    100.00% |           0      0.00%    100.00% |           0      0.00%    100.00% (Unspecified)
system.caches.L1Cache_Controller.I.Store::total          735                       (Unspecified)
system.caches.L1Cache_Controller.IS_D.DataDirNoAcks |        4964    100.00%    100.00% |           0      0.00%    100.00% |           0      0.00%    100.00% |           0      0.00%    100.00% (Unspecified)
system.caches.L1Cache_Controller.IS_D.DataDirNoAcks::total         4964                       (Unspecified)
system.caches.L1Cache_Controller.IM_AD.DataDirNoAcks |         735    100.00%    100.00% |           0      0.00%    100.00% |           0      0.00%    100.00% |           0      0.00%    100.00% (Unspecified)
system.caches.L1Cache_Controller.IM_AD.DataDirNoAcks::total          735                       (Unspecified)
system.caches.L1Cache_Controller.S.Load  |     1770772    100.00%    100.00% |           0      0.00%    100.00% |           0      0.00%    100.00% |           0      0.00%    100.00% (Unspecified)
system.caches.L1Cache_Controller.S.Load::total      1770772                       (Unspecified)
system.caches.L1Cache_Controller.S.Store |         116    100.00%    100.00% |           0      0.00%    100.00% |           0      0.00%    100.00% |           0      0.00%    100.00% (Unspecified)
system.caches.L1Cache_Controller.S.Store::total          116                       (Unspecified)
system.caches.L1Cache_Controller.S.Replacement |        4636    100.00%    100.00% |           0      0.00%    100.00% |           0      0.00%    100.00% |           0      0.00%    100.00% (Unspecified)
system.caches.L1Cache_Controller.S.Replacement::total         4636                       (Unspecified)
system.caches.L1Cache_Controller.SM_AD.DataDirNoAcks |         116    100.00%    100.00% |           0      0.00%    100.00% |           0      0.00%    100.00% |           0      0.00%    100.00% (Unspecified)
system.caches.L1Cache_Controller.SM_AD.DataDirNoAcks::total          116                       (Unspecified)
system.caches.L1Cache_Controller.M.Load  |      343590    100.00%    100.00% |           0      0.00%    100.00% |           0      0.00%    100.00% |           0      0.00%    100.00% (Unspecified)
system.caches.L1Cache_Controller.M.Load::total       343590                       (Unspecified)
system.caches.L1Cache_Controller.M.Store |      191158    100.00%    100.00% |           0      0.00%    100.00% |           0      0.00%    100.00% |           0      0.00%    100.00% (Unspecified)
system.caches.L1Cache_Controller.M.Store::total       191158                       (Unspecified)
system.caches.L1Cache_Controller.M.Replacement |         807    100.00%    100.00% |           0      0.00%    100.00% |           0      0.00%    100.00% |           0      0.00%    100.00% (Unspecified)
system.caches.L1Cache_Controller.M.Replacement::total          807                       (Unspecified)
system.caches.L1Cache_Controller.MI_A.Replacement |      257433    100.00%    100.00% |           0      0.00%    100.00% |           0      0.00%    100.00% |           0      0.00%    100.00% (Unspecified)
system.caches.L1Cache_Controller.MI_A.Replacement::total       257433                       (Unspecified)
system.caches.L1Cache_Controller.MI_A.PutAck |         807    100.00%    100.00% |           0      0.00%    100.00% |           0      0.00%    100.00% |           0      0.00%    100.00% (Unspecified)
system.caches.L1Cache_Controller.MI_A.PutAck::total          807                       (Unspecified)
system.caches.L1Cache_Controller.SI_A.Replacement |     1478879    100.00%    100.00% |           0      0.00%    100.00% |           0      0.00%    100.00% |           0      0.00%    100.00% (Unspecified)
system.caches.L1Cache_Controller.SI_A.Replacement::total      1478879                       (Unspecified)
system.caches.L1Cache_Controller.SI_A.PutAck |        4636    100.00%    100.00% |           0      0.00%    100.00% |           0      0.00%    100.00% |           0      0.00%    100.00% (Unspecified)
system.caches.L1Cache_Controller.SI_A.PutAck::total         4636                       (Unspecified)
system.caches.Directory_Controller.GetS          4964      0.00%      0.00% (Unspecified)
system.caches.Directory_Controller.GetM           851      0.00%      0.00% (Unspecified)
system.caches.Directory_Controller.PutSLast         4636      0.00%      0.00% (Unspecified)
system.caches.Directory_Controller.PutMOwner          807      0.00%      0.00% (Unspecified)
system.caches.Directory_Controller.MemData         5815      0.00%      0.00% (Unspecified)
system.caches.Directory_Controller.MemAck          807      0.00%      0.00% (Unspecified)
system.caches.Directory_Controller.I.GetS         4964      0.00%      0.00% (Unspecified)
system.caches.Directory_Controller.I.GetM          735      0.00%      0.00% (Unspecified)
system.caches.Directory_Controller.S.GetM          116      0.00%      0.00% (Unspecified)
system.caches.Directory_Controller.S.PutSLast         4636      0.00%      0.00% (Unspecified)
system.caches.Directory_Controller.M.PutMOwner          807      0.00%      0.00% (Unspecified)
system.caches.Directory_Controller.S_m.MemData         4964      0.00%      0.00% (Unspecified)
system.caches.Directory_Controller.M_m.MemData          851      0.00%      0.00% (Unspecified)
system.caches.Directory_Controller.MI_m.MemAck          807      0.00%      0.00% (Unspecified)
system.caches.MachineType.Directory.miss_mach_latency_hist_seqr::bucket_size           64                       (Unspecified)
system.caches.MachineType.Directory.miss_mach_latency_hist_seqr::max_bucket          639                       (Unspecified)
system.caches.MachineType.Directory.miss_mach_latency_hist_seqr::samples         5815                       (Unspecified)
system.caches.MachineType.Directory.miss_mach_latency_hist_seqr::mean    69.056062                       (Unspecified)
system.caches.MachineType.Directory.miss_mach_latency_hist_seqr::gmean    65.671842                       (Unspecified)
system.caches.MachineType.Directory.miss_mach_latency_hist_seqr::stdev    32.053527                       (Unspecified)
system.caches.MachineType.Directory.miss_mach_latency_hist_seqr |        4377     75.27%     75.27% |        1293     22.24%     97.51% |          49      0.84%     98.35% |          25      0.43%     98.78% |          45      0.77%     99.55% |          25      0.43%     99.98% |           0      0.00%     99.98% |           1      0.02%    100.00% |           0      0.00%    100.00% |           0      0.00%    100.00% (Unspecified)
system.caches.MachineType.Directory.miss_mach_latency_hist_seqr::total         5815                       (Unspecified)
system.caches.MachineType.Directory.miss_latency_hist_seqr.issue_to_initial_request::bucket_size            1                       (Unspecified)
system.caches.MachineType.Directory.miss_latency_hist_seqr.issue_to_initial_request::max_bucket            9                       (Unspecified)
system.caches.MachineType.Directory.miss_latency_hist_seqr.issue_to_initial_request::samples            1                       (Unspecified)
system.caches.MachineType.Directory.miss_latency_hist_seqr.issue_to_initial_request::stdev          nan                       (Unspecified)
system.caches.MachineType.Directory.miss_latency_hist_seqr.issue_to_initial_request |           1    100.00%    100.00% |           0      0.00%    100.00% |           0      0.00%    100.00% |           0      0.00%    100.00% |           0      0.00%    100.00% |           0      0.00%    100.00% |           0      0.00%    100.00% |           0      0.00%    100.00% |           0      0.00%    100.00% |           0      0.00%    100.00% (Unspecified)
system.caches.MachineType.Directory.miss_latency_hist_seqr.issue_to_initial_request::total            1                       (Unspecified)
system.caches.MachineType.Directory.miss_latency_hist_seqr.initial_to_forward::bucket_size            1                       (Unspecified)
system.caches.MachineType.Directory.miss_latency_hist_seqr.initial_to_forward::max_bucket            9                       (Unspecified)
system.caches.MachineType.Directory.miss_latency_hist_seqr.initial_to_forward::samples            1                       (Unspecified)
system.caches.MachineType.Directory.miss_latency_hist_seqr.initial_to_forward::stdev          nan                       (Unspecified)
system.caches.MachineType.Directory.miss_latency_hist_seqr.initial_to_forward |           1    100.00%    100.00% |           0      0.00%    100.00% |           0      0.00%    100.00% |           0      0.00%    100.00% |           0      0.00%    100.00% |           0      0.00%    100.00% |           0      0.00%    100.00% |           0      0.00%    100.00% |           0      0.00%    100.00% |           0      0.00%    100.00% (Unspecified)
system.caches.MachineType.Directory.miss_latency_hist_seqr.initial_to_forward::total            1                       (Unspecified)
system.caches.MachineType.Directory.miss_latency_hist_seqr.forward_to_first_response::bucket_size            1                       (Unspecified)
system.caches.MachineType.Directory.miss_latency_hist_seqr.forward_to_first_response::max_bucket            9                       (Unspecified)
system.caches.MachineType.Directory.miss_latency_hist_seqr.forward_to_first_response::samples            1                       (Unspecified)
system.caches.MachineType.Directory.miss_latency_hist_seqr.forward_to_first_response::stdev          nan                       (Unspecified)
system.caches.MachineType.Directory.miss_latency_hist_seqr.forward_to_first_response |           1    100.00%    100.00% |           0      0.00%    100.00% |           0      0.00%    100.00% |           0      0.00%    100.00% |           0      0.00%    100.00% |           0      0.00%    100.00% |           0      0.00%    100.00% |           0      0.00%    100.00% |           0      0.00%    100.00% |           0      0.00%    100.00% (Unspecified)
system.caches.MachineType.Directory.miss_latency_hist_seqr.forward_to_first_response::total            1                       (Unspecified)
system.caches.MachineType.Directory.miss_latency_hist_seqr.first_response_to_completion::bucket_size            8                       (Unspecified)
system.caches.MachineType.Directory.miss_latency_hist_seqr.first_response_to_completion::max_bucket           79                       (Unspecified)
system.caches.MachineType.Directory.miss_latency_hist_seqr.first_response_to_completion::samples            1                       (Unspecified)
system.caches.MachineType.Directory.miss_latency_hist_seqr.first_response_to_completion::mean           73                       (Unspecified)
system.caches.MachineType.Directory.miss_latency_hist_seqr.first_response_to_completion::gmean    73.000000                       (Unspecified)
system.caches.MachineType.Directory.miss_latency_hist_seqr.first_response_to_completion::stdev          nan                       (Unspecified)
system.caches.MachineType.Directory.miss_latency_hist_seqr.first_response_to_completion |           0      0.00%      0.00% |           0      0.00%      0.00% |           0      0.00%      0.00% |           0      0.00%      0.00% |           0      0.00%      0.00% |           0      0.00%      0.00% |           0      0.00%      0.00% |           0      0.00%      0.00% |           0      0.00%      0.00% |           1    100.00%    100.00% (Unspecified)
system.caches.MachineType.Directory.miss_latency_hist_seqr.first_response_to_completion::total            1                       (Unspecified)
system.caches.MachineType.Directory.incomplete_times_seqr         5814                       (Unspecified)
system.caches.RequestType.LD.latency_hist_seqr::bucket_size           64                       (Unspecified)
system.caches.RequestType.LD.latency_hist_seqr::max_bucket          639                       (Unspecified)
system.caches.RequestType.LD.latency_hist_seqr::samples       384600                       (Unspecified)
system.caches.RequestType.LD.latency_hist_seqr::mean     1.531375                       (Unspecified)
system.caches.RequestType.LD.latency_hist_seqr::gmean     1.032689                       (Unspecified)
system.caches.RequestType.LD.latency_hist_seqr::stdev     6.730333                       (Unspecified)
system.caches.RequestType.LD.latency_hist_seqr |      383818     99.80%     99.80% |         697      0.18%     99.98% |          28      0.01%     99.99% |          16      0.00%     99.99% |          27      0.01%    100.00% |          13      0.00%    100.00% |           0      0.00%    100.00% |           1      0.00%    100.00% |           0      0.00%    100.00% |           0      0.00%    100.00% (Unspecified)
system.caches.RequestType.LD.latency_hist_seqr::total       384600                       (Unspecified)
system.caches.RequestType.LD.hit_latency_hist_seqr::bucket_size            1                       (Unspecified)
system.caches.RequestType.LD.hit_latency_hist_seqr::max_bucket            9                       (Unspecified)
system.caches.RequestType.LD.hit_latency_hist_seqr::samples       381657                       (Unspecified)
system.caches.RequestType.LD.hit_latency_hist_seqr::mean            1                       (Unspecified)
system.caches.RequestType.LD.hit_latency_hist_seqr::gmean            1                       (Unspecified)
system.caches.RequestType.LD.hit_latency_hist_seqr |           0      0.00%      0.00% |      381657    100.00%    100.00% |           0      0.00%    100.00% |           0      0.00%    100.00% |           0      0.00%    100.00% |           0      0.00%    100.00% |           0      0.00%    100.00% |           0      0.00%    100.00% |           0      0.00%    100.00% |           0      0.00%    100.00% (Unspecified)
system.caches.RequestType.LD.hit_latency_hist_seqr::total       381657                       (Unspecified)
system.caches.RequestType.LD.miss_latency_hist_seqr::bucket_size           64                       (Unspecified)
system.caches.RequestType.LD.miss_latency_hist_seqr::max_bucket          639                       (Unspecified)
system.caches.RequestType.LD.miss_latency_hist_seqr::samples         2943                       (Unspecified)
system.caches.RequestType.LD.miss_latency_hist_seqr::mean    70.441726                       (Unspecified)
system.caches.RequestType.LD.miss_latency_hist_seqr::gmean    66.927422                       (Unspecified)
system.caches.RequestType.LD.miss_latency_hist_seqr::stdev    33.685512                       (Unspecified)
system.caches.RequestType.LD.miss_latency_hist_seqr |        2161     73.43%     73.43% |         697     23.68%     97.11% |          28      0.95%     98.06% |          16      0.54%     98.61% |          27      0.92%     99.52% |          13      0.44%     99.97% |           0      0.00%     99.97% |           1      0.03%    100.00% |           0      0.00%    100.00% |           0      0.00%    100.00% (Unspecified)
system.caches.RequestType.LD.miss_latency_hist_seqr::total         2943                       (Unspecified)
system.caches.RequestType.ST.latency_hist_seqr::bucket_size           64                       (Unspecified)
system.caches.RequestType.ST.latency_hist_seqr::max_bucket          639                       (Unspecified)
system.caches.RequestType.ST.latency_hist_seqr::samples       179177                       (Unspecified)
system.caches.RequestType.ST.latency_hist_seqr::mean     1.278323                       (Unspecified)
system.caches.RequestType.ST.latency_hist_seqr::gmean     1.018525                       (Unspecified)
system.caches.RequestType.ST.latency_hist_seqr::stdev     4.680870                       (Unspecified)
system.caches.RequestType.ST.latency_hist_seqr |      179043     99.93%     99.93% |         118      0.07%     99.99% |           4      0.00%     99.99% |           2      0.00%     99.99% |           6      0.00%    100.00% |           4      0.00%    100.00% |           0      0.00%    100.00% |           0      0.00%    100.00% |           0      0.00%    100.00% |           0      0.00%    100.00% (Unspecified)
system.caches.RequestType.ST.latency_hist_seqr::total       179177                       (Unspecified)
system.caches.RequestType.ST.hit_latency_hist_seqr::bucket_size            1                       (Unspecified)
system.caches.RequestType.ST.hit_latency_hist_seqr::max_bucket            9                       (Unspecified)
system.caches.RequestType.ST.hit_latency_hist_seqr::samples       178368                       (Unspecified)
system.caches.RequestType.ST.hit_latency_hist_seqr::mean            1                       (Unspecified)
system.caches.RequestType.ST.hit_latency_hist_seqr::gmean            1                       (Unspecified)
system.caches.RequestType.ST.hit_latency_hist_seqr |           0      0.00%      0.00% |      178368    100.00%    100.00% |           0      0.00%    100.00% |           0      0.00%    100.00% |           0      0.00%    100.00% |           0      0.00%    100.00% |           0      0.00%    100.00% |           0      0.00%    100.00% |           0      0.00%    100.00% |           0      0.00%    100.00% (Unspecified)
system.caches.RequestType.ST.hit_latency_hist_seqr::total       178368                       (Unspecified)
system.caches.RequestType.ST.miss_latency_hist_seqr::bucket_size           64                       (Unspecified)
system.caches.RequestType.ST.miss_latency_hist_seqr::max_bucket          639                       (Unspecified)
system.caches.RequestType.ST.miss_latency_hist_seqr::samples          809                       (Unspecified)
system.caches.RequestType.ST.miss_latency_hist_seqr::mean    62.642769                       (Unspecified)
system.caches.RequestType.ST.miss_latency_hist_seqr::gmean    58.290343                       (Unspecified)
system.caches.RequestType.ST.miss_latency_hist_seqr::stdev    32.731653                       (Unspecified)
system.caches.RequestType.ST.miss_latency_hist_seqr |         675     83.44%     83.44% |         118     14.59%     98.02% |           4      0.49%     98.52% |           2      0.25%     98.76% |           6      0.74%     99.51% |           4      0.49%    100.00% |           0      0.00%    100.00% |           0      0.00%    100.00% |           0      0.00%    100.00% |           0      0.00%    100.00% (Unspecified)
system.caches.RequestType.ST.miss_latency_hist_seqr::total          809                       (Unspecified)
system.caches.RequestType.IFETCH.latency_hist_seqr::bucket_size           64                       (Unspecified)
system.caches.RequestType.IFETCH.latency_hist_seqr::max_bucket          639                       (Unspecified)
system.caches.RequestType.IFETCH.latency_hist_seqr::samples      1734726                       (Unspecified)
system.caches.RequestType.IFETCH.latency_hist_seqr::mean     1.080270                       (Unspecified)
system.caches.RequestType.IFETCH.latency_hist_seqr::gmean     1.004916                       (Unspecified)
system.caches.RequestType.IFETCH.latency_hist_seqr::stdev     2.551672                       (Unspecified)
system.caches.RequestType.IFETCH.latency_hist_seqr |     1734213     99.97%     99.97% |         469      0.03%    100.00% |          17      0.00%    100.00% |           7      0.00%    100.00% |          12      0.00%    100.00% |           8      0.00%    100.00% |           0      0.00%    100.00% |           0      0.00%    100.00% |           0      0.00%    100.00% |           0      0.00%    100.00% (Unspecified)
system.caches.RequestType.IFETCH.latency_hist_seqr::total      1734726                       (Unspecified)
system.caches.RequestType.IFETCH.hit_latency_hist_seqr::bucket_size            1                       (Unspecified)
system.caches.RequestType.IFETCH.hit_latency_hist_seqr::max_bucket            9                       (Unspecified)
system.caches.RequestType.IFETCH.hit_latency_hist_seqr::samples      1732705                       (Unspecified)
system.caches.RequestType.IFETCH.hit_latency_hist_seqr::mean            1                       (Unspecified)
system.caches.RequestType.IFETCH.hit_latency_hist_seqr::gmean            1                       (Unspecified)
system.caches.RequestType.IFETCH.hit_latency_hist_seqr |           0      0.00%      0.00% |     1732705    100.00%    100.00% |           0      0.00%    100.00% |           0      0.00%    100.00% |           0      0.00%    100.00% |           0      0.00%    100.00% |           0      0.00%    100.00% |           0      0.00%    100.00% |           0      0.00%    100.00% |           0      0.00%    100.00% (Unspecified)
system.caches.RequestType.IFETCH.hit_latency_hist_seqr::total      1732705                       (Unspecified)
system.caches.RequestType.IFETCH.miss_latency_hist_seqr::bucket_size           64                       (Unspecified)
system.caches.RequestType.IFETCH.miss_latency_hist_seqr::max_bucket          639                       (Unspecified)
system.caches.RequestType.IFETCH.miss_latency_hist_seqr::samples         2021                       (Unspecified)
system.caches.RequestType.IFETCH.miss_latency_hist_seqr::mean    69.899555                       (Unspecified)
system.caches.RequestType.IFETCH.miss_latency_hist_seqr::gmean    67.316440                       (Unspecified)
system.caches.RequestType.IFETCH.miss_latency_hist_seqr::stdev    29.112573                       (Unspecified)
system.caches.RequestType.IFETCH.miss_latency_hist_seqr |        1508     74.62%     74.62% |         469     23.21%     97.82% |          17      0.84%     98.66% |           7      0.35%     99.01% |          12      0.59%     99.60% |           8      0.40%    100.00% |           0      0.00%    100.00% |           0      0.00%    100.00% |           0      0.00%    100.00% |           0      0.00%    100.00% (Unspecified)
system.caches.RequestType.IFETCH.miss_latency_hist_seqr::total         2021                       (Unspecified)
system.caches.RequestType.RMW_Read.latency_hist_seqr::bucket_size           16                       (Unspecified)
system.caches.RequestType.RMW_Read.latency_hist_seqr::max_bucket          159                       (Unspecified)
system.caches.RequestType.RMW_Read.latency_hist_seqr::samples        12832                       (Unspecified)
system.caches.RequestType.RMW_Read.latency_hist_seqr::mean     1.176434                       (Unspecified)
system.caches.RequestType.RMW_Read.latency_hist_seqr::gmean     1.013059                       (Unspecified)
system.caches.RequestType.RMW_Read.latency_hist_seqr::stdev     3.186884                       (Unspecified)
system.caches.RequestType.RMW_Read.latency_hist_seqr |       12790     99.67%     99.67% |           2      0.02%     99.69% |           6      0.05%     99.74% |          25      0.19%     99.93% |           7      0.05%     99.98% |           2      0.02%    100.00% |           0      0.00%    100.00% |           0      0.00%    100.00% |           0      0.00%    100.00% |           0      0.00%    100.00% (Unspecified)
system.caches.RequestType.RMW_Read.latency_hist_seqr::total        12832                       (Unspecified)
system.caches.RequestType.RMW_Read.hit_latency_hist_seqr::bucket_size            1                       (Unspecified)
system.caches.RequestType.RMW_Read.hit_latency_hist_seqr::max_bucket            9                       (Unspecified)
system.caches.RequestType.RMW_Read.hit_latency_hist_seqr::samples        12790                       (Unspecified)
system.caches.RequestType.RMW_Read.hit_latency_hist_seqr::mean            1                       (Unspecified)
system.caches.RequestType.RMW_Read.hit_latency_hist_seqr::gmean            1                       (Unspecified)
system.caches.RequestType.RMW_Read.hit_latency_hist_seqr |           0      0.00%      0.00% |       12790    100.00%    100.00% |           0      0.00%    100.00% |           0      0.00%    100.00% |           0      0.00%    100.00% |           0      0.00%    100.00% |           0      0.00%    100.00% |           0      0.00%    100.00% |           0      0.00%    100.00% |           0      0.00%    100.00% (Unspecified)
system.caches.RequestType.RMW_Read.hit_latency_hist_seqr::total        12790                       (Unspecified)
system.caches.RequestType.RMW_Read.miss_latency_hist_seqr::bucket_size           16                       (Unspecified)
system.caches.RequestType.RMW_Read.miss_latency_hist_seqr::max_bucket          159                       (Unspecified)
system.caches.RequestType.RMW_Read.miss_latency_hist_seqr::samples           42                       (Unspecified)
system.caches.RequestType.RMW_Read.miss_latency_hist_seqr::mean    54.904762                       (Unspecified)
system.caches.RequestType.RMW_Read.miss_latency_hist_seqr::gmean    52.672984                       (Unspecified)
system.caches.RequestType.RMW_Read.miss_latency_hist_seqr::stdev    14.544816                       (Unspecified)
system.caches.RequestType.RMW_Read.miss_latency_hist_seqr |           0      0.00%      0.00% |           2      4.76%      4.76% |           6     14.29%     19.05% |          25     59.52%     78.57% |           7     16.67%     95.24% |           2      4.76%    100.00% |           0      0.00%    100.00% |           0      0.00%    100.00% |           0      0.00%    100.00% |           0      0.00%    100.00% (Unspecified)
system.caches.RequestType.RMW_Read.miss_latency_hist_seqr::total           42                       (Unspecified)
system.caches.RequestTypeMachineType.LD.Directory.miss_type_mach_latency_hist_seqr::bucket_size           64                       (Unspecified)
system.caches.RequestTypeMachineType.LD.Directory.miss_type_mach_latency_hist_seqr::max_bucket          639                       (Unspecified)
system.caches.RequestTypeMachineType.LD.Directory.miss_type_mach_latency_hist_seqr::samples         2943                       (Unspecified)
system.caches.RequestTypeMachineType.LD.Directory.miss_type_mach_latency_hist_seqr::mean    70.441726                       (Unspecified)
system.caches.RequestTypeMachineType.LD.Directory.miss_type_mach_latency_hist_seqr::gmean    66.927422                       (Unspecified)
system.caches.RequestTypeMachineType.LD.Directory.miss_type_mach_latency_hist_seqr::stdev    33.685512                       (Unspecified)
system.caches.RequestTypeMachineType.LD.Directory.miss_type_mach_latency_hist_seqr |        2161     73.43%     73.43% |         697     23.68%     97.11% |          28      0.95%     98.06% |          16      0.54%     98.61% |          27      0.92%     99.52% |          13      0.44%     99.97% |           0      0.00%     99.97% |           1      0.03%    100.00% |           0      0.00%    100.00% |           0      0.00%    100.00% (Unspecified)
system.caches.RequestTypeMachineType.LD.Directory.miss_type_mach_latency_hist_seqr::total         2943                       (Unspecified)
system.caches.RequestTypeMachineType.ST.Directory.miss_type_mach_latency_hist_seqr::bucket_size           64                       (Unspecified)
system.caches.RequestTypeMachineType.ST.Directory.miss_type_mach_latency_hist_seqr::max_bucket          639                       (Unspecified)
system.caches.RequestTypeMachineType.ST.Directory.miss_type_mach_latency_hist_seqr::samples          809                       (Unspecified)
system.caches.RequestTypeMachineType.ST.Directory.miss_type_mach_latency_hist_seqr::mean    62.642769                       (Unspecified)
system.caches.RequestTypeMachineType.ST.Directory.miss_type_mach_latency_hist_seqr::gmean    58.290343                       (Unspecified)
system.caches.RequestTypeMachineType.ST.Directory.miss_type_mach_latency_hist_seqr::stdev    32.731653                       (Unspecified)
system.caches.RequestTypeMachineType.ST.Directory.miss_type_mach_latency_hist_seqr |         675     83.44%     83.44% |         118     14.59%     98.02% |           4      0.49%     98.52% |           2      0.25%     98.76% |           6      0.74%     99.51% |           4      0.49%    100.00% |           0      0.00%    100.00% |           0      0.00%    100.00% |           0      0.00%    100.00% |           0      0.00%    100.00% (Unspecified)
system.caches.RequestTypeMachineType.ST.Directory.miss_type_mach_latency_hist_seqr::total          809                       (Unspecified)
system.caches.RequestTypeMachineType.IFETCH.Directory.miss_type_mach_latency_hist_seqr::bucket_size           64                       (Unspecified)
system.caches.RequestTypeMachineType.IFETCH.Directory.miss_type_mach_latency_hist_seqr::max_bucket          639                       (Unspecified)
system.caches.RequestTypeMachineType.IFETCH.Directory.miss_type_mach_latency_hist_seqr::samples         2021                       (Unspecified)
system.caches.RequestTypeMachineType.IFETCH.Directory.miss_type_mach_latency_hist_seqr::mean    69.899555                       (Unspecified)
system.caches.RequestTypeMachineType.IFETCH.Directory.miss_type_mach_latency_hist_seqr::gmean    67.316440                       (Unspecified)
system.caches.RequestTypeMachineType.IFETCH.Directory.miss_type_mach_latency_hist_seqr::stdev    29.112573                       (Unspecified)
system.caches.RequestTypeMachineType.IFETCH.Directory.miss_type_mach_latency_hist_seqr |        1508     74.62%     74.62% |         469     23.21%     97.82% |          17      0.84%     98.66% |           7      0.35%     99.01% |          12      0.59%     99.60% |           8      0.40%    100.00% |           0      0.00%    100.00% |           0      0.00%    100.00% |           0      0.00%    100.00% |           0      0.00%    100.00% (Unspecified)
system.caches.RequestTypeMachineType.IFETCH.Directory.miss_type_mach_latency_hist_seqr::total         2021                       (Unspecified)
system.caches.RequestTypeMachineType.RMW_Read.Directory.miss_type_mach_latency_hist_seqr::bucket_size           16                       (Unspecified)
system.caches.RequestTypeMachineType.RMW_Read.Directory.miss_type_mach_latency_hist_seqr::max_bucket          159                       (Unspecified)
system.caches.RequestTypeMachineType.RMW_Read.Directory.miss_type_mach_latency_hist_seqr::samples           42                       (Unspecified)
system.caches.RequestTypeMachineType.RMW_Read.Directory.miss_type_mach_latency_hist_seqr::mean    54.904762                       (Unspecified)
system.caches.RequestTypeMachineType.RMW_Read.Directory.miss_type_mach_latency_hist_seqr::gmean    52.672984                       (Unspecified)
system.caches.RequestTypeMachineType.RMW_Read.Directory.miss_type_mach_latency_hist_seqr::stdev    14.544816                       (Unspecified)
system.caches.RequestTypeMachineType.RMW_Read.Directory.miss_type_mach_latency_hist_seqr |           0      0.00%      0.00% |           2      4.76%      4.76% |           6     14.29%     19.05% |          25     59.52%     78.57% |           7     16.67%     95.24% |           2      4.76%    100.00% |           0      0.00%    100.00% |           0      0.00%    100.00% |           0      0.00%    100.00% |           0      0.00%    100.00% (Unspecified)
system.caches.RequestTypeMachineType.RMW_Read.Directory.miss_type_mach_latency_hist_seqr::total           42                       (Unspecified)
system.caches.controllers0.fullyBusyCycles        54430                       # cycles for which number of transistions == max transitions (Unspecified)
system.caches.controllers0.cacheMemory.m_demand_hits            0                       # Number of cache demand hits (Unspecified)
system.caches.controllers0.cacheMemory.m_demand_misses            0                       # Number of cache demand misses (Unspecified)
system.caches.controllers0.cacheMemory.m_demand_accesses            0                       # Number of cache demand accesses (Unspecified)
system.caches.controllers0.forwardFromDir.m_buf_msgs     0.001085                       # Average number of messages in buffer (Unspecified)
system.caches.controllers0.forwardFromDir.m_stall_time  4984.450941                       # Average number of cycles messages are stalled in this MB (Unspecified)
system.caches.controllers0.mandatoryQueue.m_buf_msgs     0.471429                       # Average number of messages in buffer (Unspecified)
system.caches.controllers0.mandatoryQueue.m_stall_time  1665.167955                       # Average number of cycles messages are stalled in this MB (Unspecified)
system.caches.controllers0.power_state.pwrStateResidencyTicks::UNDEFINED   5018310000                       # Cumulative time (in ticks) in various power states (Tick)
system.caches.controllers0.requestToDir.m_buf_msgs     0.002243                       # Average number of messages in buffer (Unspecified)
system.caches.controllers0.requestToDir.m_stall_time   999.999601                       # Average number of cycles messages are stalled in this MB (Unspecified)
system.caches.controllers0.responseFromDirOrSibling.m_buf_msgs     0.001159                       # Average number of messages in buffer (Unspecified)
system.caches.controllers0.responseFromDirOrSibling.m_stall_time  4999.927266                       # Average number of cycles messages are stalled in this MB (Unspecified)
system.caches.controllers1.cacheMemory.m_demand_hits            0                       # Number of cache demand hits (Unspecified)
system.caches.controllers1.cacheMemory.m_demand_misses            0                       # Number of cache demand misses (Unspecified)
system.caches.controllers1.cacheMemory.m_demand_accesses            0                       # Number of cache demand accesses (Unspecified)
system.caches.controllers1.power_state.pwrStateResidencyTicks::UNDEFINED   5018310000                       # Cumulative time (in ticks) in various power states (Tick)
system.caches.controllers2.cacheMemory.m_demand_hits            0                       # Number of cache demand hits (Unspecified)
system.caches.controllers2.cacheMemory.m_demand_misses            0                       # Number of cache demand misses (Unspecified)
system.caches.controllers2.cacheMemory.m_demand_accesses            0                       # Number of cache demand accesses (Unspecified)
system.caches.controllers2.power_state.pwrStateResidencyTicks::UNDEFINED   5018310000                       # Cumulative time (in ticks) in various power states (Tick)
system.caches.controllers3.cacheMemory.m_demand_hits            0                       # Number of cache demand hits (Unspecified)
system.caches.controllers3.cacheMemory.m_demand_misses            0                       # Number of cache demand misses (Unspecified)
system.caches.controllers3.cacheMemory.m_demand_accesses            0                       # Number of cache demand accesses (Unspecified)
system.caches.controllers3.power_state.pwrStateResidencyTicks::UNDEFINED   5018310000                       # Cumulative time (in ticks) in various power states (Tick)
system.caches.controllers4.forwardToCache.m_buf_msgs     0.001108                       # Average number of messages in buffer (Unspecified)
system.caches.controllers4.forwardToCache.m_stall_time   999.598869                       # Average number of cycles messages are stalled in this MB (Unspecified)
system.caches.controllers4.power_state.pwrStateResidencyTicks::UNDEFINED   5018310000                       # Cumulative time (in ticks) in various power states (Tick)
system.caches.controllers4.requestFromCache.m_buf_msgs     0.002243                       # Average number of messages in buffer (Unspecified)
system.caches.controllers4.requestFromCache.m_stall_time  4999.994022                       # Average number of cycles messages are stalled in this MB (Unspecified)
system.caches.controllers4.requestToMemory.m_buf_msgs     0.001320                       # Average number of messages in buffer (Unspecified)
system.caches.controllers4.requestToMemory.m_stall_time   999.998605                       # Average number of cycles messages are stalled in this MB (Unspecified)
system.caches.controllers4.responseFromMemory.m_buf_msgs     0.001689                       # Average number of messages in buffer (Unspecified)
system.caches.controllers4.responseFromMemory.m_stall_time   999.986450                       # Average number of cycles messages are stalled in this MB (Unspecified)
system.caches.controllers4.responseToCache.m_buf_msgs     0.001159                       # Average number of messages in buffer (Unspecified)
system.caches.controllers4.responseToCache.m_stall_time   999.986250                       # Average number of cycles messages are stalled in this MB (Unspecified)
system.caches.network.msg_count.Control         31788                       (Unspecified)
system.caches.network.msg_byte.Control         254304                       (Unspecified)
system.caches.network.msg_count.Data            13244                       (Unspecified)
system.caches.network.msg_byte.Data            953568                       (Unspecified)
system.caches.network.int_link_buffers49.m_buf_msgs     0.001085                       # Average number of messages in buffer (Unspecified)
system.caches.network.int_link_buffers49.m_stall_time  2990.671760                       # Average number of cycles messages are stalled in this MB (Unspecified)
system.caches.network.int_link_buffers50.m_buf_msgs     0.001159                       # Average number of messages in buffer (Unspecified)
system.caches.network.int_link_buffers50.m_stall_time  2999.957555                       # Average number of cycles messages are stalled in this MB (Unspecified)
system.caches.network.int_link_buffers9.m_buf_msgs     0.002243                       # Average number of messages in buffer (Unspecified)
system.caches.network.int_link_buffers9.m_stall_time  2999.997609                       # Average number of cycles messages are stalled in this MB (Unspecified)
system.caches.network.power_state.pwrStateResidencyTicks::UNDEFINED   5018310000                       # Cumulative time (in ticks) in various power states (Tick)
system.caches.network.routers0.percent_links_utilized     0.150433                       (Unspecified)
system.caches.network.routers0.msg_count.Control::0        10451                       (Unspecified)
system.caches.network.routers0.msg_count.Control::1         5443                       (Unspecified)
system.caches.network.routers0.msg_bytes.Control::0        83608                       (Unspecified)
system.caches.network.routers0.msg_bytes.Control::1        43544                       (Unspecified)
system.caches.network.routers0.msg_count.Data::0          807                       (Unspecified)
system.caches.network.routers0.msg_count.Data::2         5815                       (Unspecified)
system.caches.network.routers0.msg_bytes.Data::0        58104                       (Unspecified)
system.caches.network.routers0.msg_bytes.Data::2       418680                       (Unspecified)
system.caches.network.routers0.port_buffers1.m_buf_msgs     0.001085                       # Average number of messages in buffer (Unspecified)
system.caches.network.routers0.port_buffers1.m_stall_time  3987.561550                       # Average number of cycles messages are stalled in this MB (Unspecified)
system.caches.network.routers0.port_buffers12.m_buf_msgs     0.002243                       # Average number of messages in buffer (Unspecified)
system.caches.network.routers0.port_buffers12.m_stall_time  1999.998804                       # Average number of cycles messages are stalled in this MB (Unspecified)
system.caches.network.routers0.port_buffers2.m_buf_msgs     0.001159                       # Average number of messages in buffer (Unspecified)
system.caches.network.routers0.port_buffers2.m_stall_time  3999.942610                       # Average number of cycles messages are stalled in this MB (Unspecified)
system.caches.network.routers0.power_state.pwrStateResidencyTicks::UNDEFINED   5018310000                       # Cumulative time (in ticks) in various power states (Tick)
system.caches.network.routers0.throttle00.link_utilization     0.575672                       (Unspecified)
system.caches.network.routers0.throttle00.msg_count.Control::1         5443                       (Unspecified)
system.caches.network.routers0.throttle00.msg_bytes.Control::1        43544                       (Unspecified)
system.caches.network.routers0.throttle00.msg_count.Data::2         5815                       (Unspecified)
system.caches.network.routers0.throttle00.msg_bytes.Data::2       418680                       (Unspecified)
system.caches.network.routers0.throttle01.link_utilization            0                       (Unspecified)
system.caches.network.routers0.throttle02.link_utilization            0                       (Unspecified)
system.caches.network.routers0.throttle03.link_utilization            0                       (Unspecified)
system.caches.network.routers0.throttle04.link_utilization     0.176494                       (Unspecified)
system.caches.network.routers0.throttle04.msg_count.Control::0        10451                       (Unspecified)
system.caches.network.routers0.throttle04.msg_bytes.Control::0        83608                       (Unspecified)
system.caches.network.routers0.throttle04.msg_count.Data::0          807                       (Unspecified)
system.caches.network.routers0.throttle04.msg_bytes.Data::0        58104                       (Unspecified)
system.caches.network.routers1.percent_links_utilized            0                       (Unspecified)
system.caches.network.routers1.power_state.pwrStateResidencyTicks::UNDEFINED   5018310000                       # Cumulative time (in ticks) in various power states (Tick)
system.caches.network.routers1.throttle00.link_utilization            0                       (Unspecified)
system.caches.network.routers1.throttle01.link_utilization            0                       (Unspecified)
system.caches.network.routers1.throttle02.link_utilization            0                       (Unspecified)
system.caches.network.routers1.throttle03.link_utilization            0                       (Unspecified)
system.caches.network.routers1.throttle04.link_utilization            0                       (Unspecified)
system.caches.network.routers2.percent_links_utilized            0                       (Unspecified)
system.caches.network.routers2.power_state.pwrStateResidencyTicks::UNDEFINED   5018310000                       # Cumulative time (in ticks) in various power states (Tick)
system.caches.network.routers2.throttle00.link_utilization            0                       (Unspecified)
system.caches.network.routers2.throttle01.link_utilization            0                       (Unspecified)
system.caches.network.routers2.throttle02.link_utilization            0                       (Unspecified)
system.caches.network.routers2.throttle03.link_utilization            0                       (Unspecified)
system.caches.network.routers2.throttle04.link_utilization            0                       (Unspecified)
system.caches.network.routers3.percent_links_utilized            0                       (Unspecified)
system.caches.network.routers3.power_state.pwrStateResidencyTicks::UNDEFINED   5018310000                       # Cumulative time (in ticks) in various power states (Tick)
system.caches.network.routers3.throttle00.link_utilization            0                       (Unspecified)
system.caches.network.routers3.throttle01.link_utilization            0                       (Unspecified)
system.caches.network.routers3.throttle02.link_utilization            0                       (Unspecified)
system.caches.network.routers3.throttle03.link_utilization            0                       (Unspecified)
system.caches.network.routers3.throttle04.link_utilization            0                       (Unspecified)
system.caches.network.routers4.percent_links_utilized     0.150433                       (Unspecified)
system.caches.network.routers4.msg_count.Control::0        10451                       (Unspecified)
system.caches.network.routers4.msg_count.Control::1         5443                       (Unspecified)
system.caches.network.routers4.msg_bytes.Control::0        83608                       (Unspecified)
system.caches.network.routers4.msg_bytes.Control::1        43544                       (Unspecified)
system.caches.network.routers4.msg_count.Data::0          807                       (Unspecified)
system.caches.network.routers4.msg_count.Data::2         5815                       (Unspecified)
system.caches.network.routers4.msg_bytes.Data::0        58104                       (Unspecified)
system.caches.network.routers4.msg_bytes.Data::2       418680                       (Unspecified)
system.caches.network.routers4.port_buffers0.m_buf_msgs     0.002243                       # Average number of messages in buffer (Unspecified)
system.caches.network.routers4.port_buffers0.m_stall_time  3999.996015                       # Average number of cycles messages are stalled in this MB (Unspecified)
system.caches.network.routers4.port_buffers4.m_buf_msgs     0.001085                       # Average number of messages in buffer (Unspecified)
system.caches.network.routers4.port_buffers4.m_stall_time  1993.781572                       # Average number of cycles messages are stalled in this MB (Unspecified)
system.caches.network.routers4.port_buffers5.m_buf_msgs     0.001159                       # Average number of messages in buffer (Unspecified)
system.caches.network.routers4.port_buffers5.m_stall_time  1999.972102                       # Average number of cycles messages are stalled in this MB (Unspecified)
system.caches.network.routers4.power_state.pwrStateResidencyTicks::UNDEFINED   5018310000                       # Cumulative time (in ticks) in various power states (Tick)
system.caches.network.routers4.throttle00.link_utilization     0.176494                       (Unspecified)
system.caches.network.routers4.throttle00.msg_count.Control::0        10451                       (Unspecified)
system.caches.network.routers4.throttle00.msg_bytes.Control::0        83608                       (Unspecified)
system.caches.network.routers4.throttle00.msg_count.Data::0          807                       (Unspecified)
system.caches.network.routers4.throttle00.msg_bytes.Data::0        58104                       (Unspecified)
system.caches.network.routers4.throttle01.link_utilization     0.575672                       (Unspecified)
system.caches.network.routers4.throttle01.msg_count.Control::1         5443                       (Unspecified)
system.caches.network.routers4.throttle01.msg_bytes.Control::1        43544                       (Unspecified)
system.caches.network.routers4.throttle01.msg_count.Data::2         5815                       (Unspecified)
system.caches.network.routers4.throttle01.msg_bytes.Data::2       418680                       (Unspecified)
system.caches.network.routers4.throttle02.link_utilization            0                       (Unspecified)
system.caches.network.routers4.throttle03.link_utilization            0                       (Unspecified)
system.caches.network.routers4.throttle04.link_utilization            0                       (Unspecified)
system.caches.power_state.pwrStateResidencyTicks::UNDEFINED   5018310000                       # Cumulative time (in ticks) in various power states (Tick)
system.caches.sequencers0.power_state.pwrStateResidencyTicks::UNDEFINED   5018310000                       # Cumulative time (in ticks) in various power states (Tick)
system.caches.sequencers1.power_state.pwrStateResidencyTicks::UNDEFINED   5018310000                       # Cumulative time (in ticks) in various power states (Tick)
system.caches.sequencers2.power_state.pwrStateResidencyTicks::UNDEFINED   5018310000                       # Cumulative time (in ticks) in various power states (Tick)
system.caches.sequencers3.power_state.pwrStateResidencyTicks::UNDEFINED   5018310000                       # Cumulative time (in ticks) in various power states (Tick)
system.caches.sys_port_proxy.power_state.pwrStateResidencyTicks::UNDEFINED   5018310000                       # Cumulative time (in ticks) in various power states (Tick)
system.clk_domain.clock                          1000                       # Clock period in ticks (Tick)
system.clk_domain.voltage_domain.voltage            1                       # Voltage in Volts (Volt)
system.cpu0.numCycles                         5018310                       # Number of cpu cycles simulated (Cycle)
system.cpu0.numWorkItemsStarted                     0                       # Number of work items this cpu started (Count)
system.cpu0.numWorkItemsCompleted                   0                       # Number of work items this cpu completed (Count)
system.cpu0.exec_context.thread_0.numInsts      1391312                       # Number of instructions committed (Count)
system.cpu0.exec_context.thread_0.numOps      2266986                       # Number of ops (including micro ops) committed (Count)
system.cpu0.exec_context.thread_0.numIntAluAccesses      2254002                       # Number of integer alu accesses (Count)
system.cpu0.exec_context.thread_0.numFpAluAccesses        15233                       # Number of float alu accesses (Count)
system.cpu0.exec_context.thread_0.numVecAluAccesses            0                       # Number of vector alu accesses (Count)
system.cpu0.exec_context.thread_0.numCallsReturns        78314                       # Number of times a function call or return occured (Count)
system.cpu0.exec_context.thread_0.numCondCtrlInsts        60197                       # Number of instructions that are conditional controls (Count)
system.cpu0.exec_context.thread_0.numIntInsts      2254002                       # Number of integer instructions (Count)
system.cpu0.exec_context.thread_0.numFpInsts        15233                       # Number of float instructions (Count)
system.cpu0.exec_context.thread_0.numVecInsts            0                       # Number of vector instructions (Count)
system.cpu0.exec_context.thread_0.numIntRegReads      5135686                       # Number of times the integer registers were read (Count)
system.cpu0.exec_context.thread_0.numIntRegWrites      1930047                       # Number of times the integer registers were written (Count)
system.cpu0.exec_context.thread_0.numFpRegReads        24941                       # Number of times the floating registers were read (Count)
system.cpu0.exec_context.thread_0.numFpRegWrites        12426                       # Number of times the floating registers were written (Count)
system.cpu0.exec_context.thread_0.numVecRegReads            0                       # Number of times the vector registers were read (Count)
system.cpu0.exec_context.thread_0.numVecRegWrites            0                       # Number of times the vector registers were written (Count)
system.cpu0.exec_context.thread_0.numVecPredRegReads            0                       # Number of times the predicate registers were read (Count)
system.cpu0.exec_context.thread_0.numVecPredRegWrites            0                       # Number of times the predicate registers were written (Count)
system.cpu0.exec_context.thread_0.numCCRegReads       488783                       # Number of times the CC registers were read (Count)
system.cpu0.exec_context.thread_0.numCCRegWrites       831952                       # Number of times the CC registers were written (Count)
system.cpu0.exec_context.thread_0.numMemRefs       576658                       # Number of memory refs (Count)
system.cpu0.exec_context.thread_0.numLoadInsts       397472                       # Number of load instructions (Count)
system.cpu0.exec_context.thread_0.numStoreInsts       179186                       # Number of store instructions (Count)
system.cpu0.exec_context.thread_0.numIdleCycles     0.001000                       # Number of idle cycles (Cycle)
system.cpu0.exec_context.thread_0.numBusyCycles 5018309.999000                       # Number of busy cycles (Cycle)
system.cpu0.exec_context.thread_0.notIdleFraction     1.000000                       # Percentage of non-idle cycles (Ratio)
system.cpu0.exec_context.thread_0.idleFraction     0.000000                       # Percentage of idle cycles (Ratio)
system.cpu0.exec_context.thread_0.numBranches       146288                       # Number of branches fetched (Count)
system.cpu0.exec_context.thread_0.statExecutedInstType::No_OpClass         2544      0.11%      0.11% # Class of executed instruction. (Count)
system.cpu0.exec_context.thread_0.statExecutedInstType::IntAlu      1676517     73.95%     74.06% # Class of executed instruction. (Count)
system.cpu0.exec_context.thread_0.statExecutedInstType::IntMult          341      0.02%     74.08% # Class of executed instruction. (Count)
system.cpu0.exec_context.thread_0.statExecutedInstType::IntDiv         1390      0.06%     74.14% # Class of executed instruction. (Count)
system.cpu0.exec_context.thread_0.statExecutedInstType::FloatAdd          522      0.02%     74.16% # Class of executed instruction. (Count)
system.cpu0.exec_context.thread_0.statExecutedInstType::FloatCmp            0      0.00%     74.16% # Class of executed instruction. (Count)
system.cpu0.exec_context.thread_0.statExecutedInstType::FloatCvt           32      0.00%     74.16% # Class of executed instruction. (Count)
system.cpu0.exec_context.thread_0.statExecutedInstType::FloatMult            0      0.00%     74.16% # Class of executed instruction. (Count)
system.cpu0.exec_context.thread_0.statExecutedInstType::FloatMultAcc            0      0.00%     74.16% # Class of executed instruction. (Count)
system.cpu0.exec_context.thread_0.statExecutedInstType::FloatDiv            0      0.00%     74.16% # Class of executed instruction. (Count)
system.cpu0.exec_context.thread_0.statExecutedInstType::FloatMisc            0      0.00%     74.16% # Class of executed instruction. (Count)
system.cpu0.exec_context.thread_0.statExecutedInstType::FloatSqrt            0      0.00%     74.16% # Class of executed instruction. (Count)
system.cpu0.exec_context.thread_0.statExecutedInstType::SimdAdd          968      0.04%     74.21% # Class of executed instruction. (Count)
system.cpu0.exec_context.thread_0.statExecutedInstType::SimdAddAcc            0      0.00%     74.21% # Class of executed instruction. (Count)
system.cpu0.exec_context.thread_0.statExecutedInstType::SimdAlu         2060      0.09%     74.30% # Class of executed instruction. (Count)
system.cpu0.exec_context.thread_0.statExecutedInstType::SimdCmp            0      0.00%     74.30% # Class of executed instruction. (Count)
system.cpu0.exec_context.thread_0.statExecutedInstType::SimdCvt         2378      0.10%     74.40% # Class of executed instruction. (Count)
system.cpu0.exec_context.thread_0.statExecutedInstType::SimdMisc         3241      0.14%     74.54% # Class of executed instruction. (Count)
system.cpu0.exec_context.thread_0.statExecutedInstType::SimdMult            0      0.00%     74.54% # Class of executed instruction. (Count)
system.cpu0.exec_context.thread_0.statExecutedInstType::SimdMultAcc            0      0.00%     74.54% # Class of executed instruction. (Count)
system.cpu0.exec_context.thread_0.statExecutedInstType::SimdShift          442      0.02%     74.56% # Class of executed instruction. (Count)
system.cpu0.exec_context.thread_0.statExecutedInstType::SimdShiftAcc            0      0.00%     74.56% # Class of executed instruction. (Count)
system.cpu0.exec_context.thread_0.statExecutedInstType::SimdDiv            0      0.00%     74.56% # Class of executed instruction. (Count)
system.cpu0.exec_context.thread_0.statExecutedInstType::SimdSqrt            0      0.00%     74.56% # Class of executed instruction. (Count)
system.cpu0.exec_context.thread_0.statExecutedInstType::SimdFloatAdd            0      0.00%     74.56% # Class of executed instruction. (Count)
system.cpu0.exec_context.thread_0.statExecutedInstType::SimdFloatAlu            0      0.00%     74.56% # Class of executed instruction. (Count)
system.cpu0.exec_context.thread_0.statExecutedInstType::SimdFloatCmp            0      0.00%     74.56% # Class of executed instruction. (Count)
system.cpu0.exec_context.thread_0.statExecutedInstType::SimdFloatCvt            0      0.00%     74.56% # Class of executed instruction. (Count)
system.cpu0.exec_context.thread_0.statExecutedInstType::SimdFloatDiv            0      0.00%     74.56% # Class of executed instruction. (Count)
system.cpu0.exec_context.thread_0.statExecutedInstType::SimdFloatMisc            0      0.00%     74.56% # Class of executed instruction. (Count)
system.cpu0.exec_context.thread_0.statExecutedInstType::SimdFloatMult            0      0.00%     74.56% # Class of executed instruction. (Count)
system.cpu0.exec_context.thread_0.statExecutedInstType::SimdFloatMultAcc            0      0.00%     74.56% # Class of executed instruction. (Count)
system.cpu0.exec_context.thread_0.statExecutedInstType::SimdFloatSqrt            0      0.00%     74.56% # Class of executed instruction. (Count)
system.cpu0.exec_context.thread_0.statExecutedInstType::SimdReduceAdd            0      0.00%     74.56% # Class of executed instruction. (Count)
system.cpu0.exec_context.thread_0.statExecutedInstType::SimdReduceAlu            0      0.00%     74.56% # Class of executed instruction. (Count)
system.cpu0.exec_context.thread_0.statExecutedInstType::SimdReduceCmp            0      0.00%     74.56% # Class of executed instruction. (Count)
system.cpu0.exec_context.thread_0.statExecutedInstType::SimdFloatReduceAdd            0      0.00%     74.56% # Class of executed instruction. (Count)
system.cpu0.exec_context.thread_0.statExecutedInstType::SimdFloatReduceCmp            0      0.00%     74.56% # Class of executed instruction. (Count)
system.cpu0.exec_context.thread_0.statExecutedInstType::SimdAes            0      0.00%     74.56% # Class of executed instruction. (Count)
system.cpu0.exec_context.thread_0.statExecutedInstType::SimdAesMix            0      0.00%     74.56% # Class of executed instruction. (Count)
system.cpu0.exec_context.thread_0.statExecutedInstType::SimdSha1Hash            0      0.00%     74.56% # Class of executed instruction. (Count)
system.cpu0.exec_context.thread_0.statExecutedInstType::SimdSha1Hash2            0      0.00%     74.56% # Class of executed instruction. (Count)
system.cpu0.exec_context.thread_0.statExecutedInstType::SimdSha256Hash            0      0.00%     74.56% # Class of executed instruction. (Count)
system.cpu0.exec_context.thread_0.statExecutedInstType::SimdSha256Hash2            0      0.00%     74.56% # Class of executed instruction. (Count)
system.cpu0.exec_context.thread_0.statExecutedInstType::SimdShaSigma2            0      0.00%     74.56% # Class of executed instruction. (Count)
system.cpu0.exec_context.thread_0.statExecutedInstType::SimdShaSigma3            0      0.00%     74.56% # Class of executed instruction. (Count)
system.cpu0.exec_context.thread_0.statExecutedInstType::SimdPredAlu            0      0.00%     74.56% # Class of executed instruction. (Count)
system.cpu0.exec_context.thread_0.statExecutedInstType::MemRead       394824     17.42%     91.98% # Class of executed instruction. (Count)
system.cpu0.exec_context.thread_0.statExecutedInstType::MemWrite       177612      7.83%     99.81% # Class of executed instruction. (Count)
system.cpu0.exec_context.thread_0.statExecutedInstType::FloatMemRead         2648      0.12%     99.93% # Class of executed instruction. (Count)
system.cpu0.exec_context.thread_0.statExecutedInstType::FloatMemWrite         1574      0.07%    100.00% # Class of executed instruction. (Count)
system.cpu0.exec_context.thread_0.statExecutedInstType::IprAccess            0      0.00%    100.00% # Class of executed instruction. (Count)
system.cpu0.exec_context.thread_0.statExecutedInstType::InstPrefetch            0      0.00%    100.00% # Class of executed instruction. (Count)
system.cpu0.exec_context.thread_0.statExecutedInstType::total      2267093                       # Class of executed instruction. (Count)
system.cpu0.interrupts.clk_domain.clock         16000                       # Clock period in ticks (Tick)
system.cpu0.mmu.dtb.rdAccesses                 397483                       # TLB accesses on read requests (Count)
system.cpu0.mmu.dtb.wrAccesses                 179188                       # TLB accesses on write requests (Count)
system.cpu0.mmu.dtb.rdMisses                      159                       # TLB misses on read requests (Count)
system.cpu0.mmu.dtb.wrMisses                       29                       # TLB misses on write requests (Count)
system.cpu0.mmu.dtb.walker.power_state.pwrStateResidencyTicks::UNDEFINED   5018310000                       # Cumulative time (in ticks) in various power states (Tick)
system.cpu0.mmu.itb.rdAccesses                      0                       # TLB accesses on read requests (Count)
system.cpu0.mmu.itb.wrAccesses                1734782                       # TLB accesses on write requests (Count)
system.cpu0.mmu.itb.rdMisses                        0                       # TLB misses on read requests (Count)
system.cpu0.mmu.itb.wrMisses                      189                       # TLB misses on write requests (Count)
system.cpu0.mmu.itb.walker.power_state.pwrStateResidencyTicks::UNDEFINED   5018310000                       # Cumulative time (in ticks) in various power states (Tick)
system.cpu0.power_state.pwrStateResidencyTicks::ON   5018310000                       # Cumulative time (in ticks) in various power states (Tick)
system.cpu0.thread_0.numInsts                       0                       # Number of Instructions committed (Count)
system.cpu0.thread_0.numOps                         0                       # Number of Ops committed (Count)
system.cpu0.thread_0.numMemRefs                     0                       # Number of Memory References (Count)
system.cpu0.workload.numSyscalls                   45                       # Number of system calls (Count)
system.cpu1.numCycles                               0                       # Number of cpu cycles simulated (Cycle)
system.cpu1.numWorkItemsStarted                     0                       # Number of work items this cpu started (Count)
system.cpu1.numWorkItemsCompleted                   0                       # Number of work items this cpu completed (Count)
system.cpu1.exec_context.thread_0.numInsts            0                       # Number of instructions committed (Count)
system.cpu1.exec_context.thread_0.numOps            0                       # Number of ops (including micro ops) committed (Count)
system.cpu1.exec_context.thread_0.numIntAluAccesses            0                       # Number of integer alu accesses (Count)
system.cpu1.exec_context.thread_0.numFpAluAccesses            0                       # Number of float alu accesses (Count)
system.cpu1.exec_context.thread_0.numVecAluAccesses            0                       # Number of vector alu accesses (Count)
system.cpu1.exec_context.thread_0.numCallsReturns            0                       # Number of times a function call or return occured (Count)
system.cpu1.exec_context.thread_0.numCondCtrlInsts            0                       # Number of instructions that are conditional controls (Count)
system.cpu1.exec_context.thread_0.numIntInsts            0                       # Number of integer instructions (Count)
system.cpu1.exec_context.thread_0.numFpInsts            0                       # Number of float instructions (Count)
system.cpu1.exec_context.thread_0.numVecInsts            0                       # Number of vector instructions (Count)
system.cpu1.exec_context.thread_0.numIntRegReads            0                       # Number of times the integer registers were read (Count)
system.cpu1.exec_context.thread_0.numIntRegWrites            0                       # Number of times the integer registers were written (Count)
system.cpu1.exec_context.thread_0.numFpRegReads            0                       # Number of times the floating registers were read (Count)
system.cpu1.exec_context.thread_0.numFpRegWrites            0                       # Number of times the floating registers were written (Count)
system.cpu1.exec_context.thread_0.numVecRegReads            0                       # Number of times the vector registers were read (Count)
system.cpu1.exec_context.thread_0.numVecRegWrites            0                       # Number of times the vector registers were written (Count)
system.cpu1.exec_context.thread_0.numVecPredRegReads            0                       # Number of times the predicate registers were read (Count)
system.cpu1.exec_context.thread_0.numVecPredRegWrites            0                       # Number of times the predicate registers were written (Count)
system.cpu1.exec_context.thread_0.numMemRefs            0                       # Number of memory refs (Count)
system.cpu1.exec_context.thread_0.numLoadInsts            0                       # Number of load instructions (Count)
system.cpu1.exec_context.thread_0.numStoreInsts            0                       # Number of store instructions (Count)
system.cpu1.exec_context.thread_0.numIdleCycles            0                       # Number of idle cycles (Cycle)
system.cpu1.exec_context.thread_0.numBusyCycles            0                       # Number of busy cycles (Cycle)
system.cpu1.exec_context.thread_0.notIdleFraction            0                       # Percentage of non-idle cycles (Ratio)
system.cpu1.exec_context.thread_0.idleFraction            1                       # Percentage of idle cycles (Ratio)
system.cpu1.exec_context.thread_0.statExecutedInstType::No_OpClass            0                       # Class of executed instruction. (Count)
system.cpu1.exec_context.thread_0.statExecutedInstType::IntAlu            0                       # Class of executed instruction. (Count)
system.cpu1.exec_context.thread_0.statExecutedInstType::IntMult            0                       # Class of executed instruction. (Count)
system.cpu1.exec_context.thread_0.statExecutedInstType::IntDiv            0                       # Class of executed instruction. (Count)
system.cpu1.exec_context.thread_0.statExecutedInstType::FloatAdd            0                       # Class of executed instruction. (Count)
system.cpu1.exec_context.thread_0.statExecutedInstType::FloatCmp            0                       # Class of executed instruction. (Count)
system.cpu1.exec_context.thread_0.statExecutedInstType::FloatCvt            0                       # Class of executed instruction. (Count)
system.cpu1.exec_context.thread_0.statExecutedInstType::FloatMult            0                       # Class of executed instruction. (Count)
system.cpu1.exec_context.thread_0.statExecutedInstType::FloatMultAcc            0                       # Class of executed instruction. (Count)
system.cpu1.exec_context.thread_0.statExecutedInstType::FloatDiv            0                       # Class of executed instruction. (Count)
system.cpu1.exec_context.thread_0.statExecutedInstType::FloatMisc            0                       # Class of executed instruction. (Count)
system.cpu1.exec_context.thread_0.statExecutedInstType::FloatSqrt            0                       # Class of executed instruction. (Count)
system.cpu1.exec_context.thread_0.statExecutedInstType::SimdAdd            0                       # Class of executed instruction. (Count)
system.cpu1.exec_context.thread_0.statExecutedInstType::SimdAddAcc            0                       # Class of executed instruction. (Count)
system.cpu1.exec_context.thread_0.statExecutedInstType::SimdAlu            0                       # Class of executed instruction. (Count)
system.cpu1.exec_context.thread_0.statExecutedInstType::SimdCmp            0                       # Class of executed instruction. (Count)
system.cpu1.exec_context.thread_0.statExecutedInstType::SimdCvt            0                       # Class of executed instruction. (Count)
system.cpu1.exec_context.thread_0.statExecutedInstType::SimdMisc            0                       # Class of executed instruction. (Count)
system.cpu1.exec_context.thread_0.statExecutedInstType::SimdMult            0                       # Class of executed instruction. (Count)
system.cpu1.exec_context.thread_0.statExecutedInstType::SimdMultAcc            0                       # Class of executed instruction. (Count)
system.cpu1.exec_context.thread_0.statExecutedInstType::SimdShift            0                       # Class of executed instruction. (Count)
system.cpu1.exec_context.thread_0.statExecutedInstType::SimdShiftAcc            0                       # Class of executed instruction. (Count)
system.cpu1.exec_context.thread_0.statExecutedInstType::SimdDiv            0                       # Class of executed instruction. (Count)
system.cpu1.exec_context.thread_0.statExecutedInstType::SimdSqrt            0                       # Class of executed instruction. (Count)
system.cpu1.exec_context.thread_0.statExecutedInstType::SimdFloatAdd            0                       # Class of executed instruction. (Count)
system.cpu1.exec_context.thread_0.statExecutedInstType::SimdFloatAlu            0                       # Class of executed instruction. (Count)
system.cpu1.exec_context.thread_0.statExecutedInstType::SimdFloatCmp            0                       # Class of executed instruction. (Count)
system.cpu1.exec_context.thread_0.statExecutedInstType::SimdFloatCvt            0                       # Class of executed instruction. (Count)
system.cpu1.exec_context.thread_0.statExecutedInstType::SimdFloatDiv            0                       # Class of executed instruction. (Count)
system.cpu1.exec_context.thread_0.statExecutedInstType::SimdFloatMisc            0                       # Class of executed instruction. (Count)
system.cpu1.exec_context.thread_0.statExecutedInstType::SimdFloatMult            0                       # Class of executed instruction. (Count)
system.cpu1.exec_context.thread_0.statExecutedInstType::SimdFloatMultAcc            0                       # Class of executed instruction. (Count)
system.cpu1.exec_context.thread_0.statExecutedInstType::SimdFloatSqrt            0                       # Class of executed instruction. (Count)
system.cpu1.exec_context.thread_0.statExecutedInstType::SimdReduceAdd            0                       # Class of executed instruction. (Count)
system.cpu1.exec_context.thread_0.statExecutedInstType::SimdReduceAlu            0                       # Class of executed instruction. (Count)
system.cpu1.exec_context.thread_0.statExecutedInstType::SimdReduceCmp            0                       # Class of executed instruction. (Count)
system.cpu1.exec_context.thread_0.statExecutedInstType::SimdFloatReduceAdd            0                       # Class of executed instruction. (Count)
system.cpu1.exec_context.thread_0.statExecutedInstType::SimdFloatReduceCmp            0                       # Class of executed instruction. (Count)
system.cpu1.exec_context.thread_0.statExecutedInstType::SimdAes            0                       # Class of executed instruction. (Count)
system.cpu1.exec_context.thread_0.statExecutedInstType::SimdAesMix            0                       # Class of executed instruction. (Count)
system.cpu1.exec_context.thread_0.statExecutedInstType::SimdSha1Hash            0                       # Class of executed instruction. (Count)
system.cpu1.exec_context.thread_0.statExecutedInstType::SimdSha1Hash2            0                       # Class of executed instruction. (Count)
[...]
system.mem_ctrl.rdPerTurnAround::64-95             10     21.74%     63.04% # Reads before turning the bus around for writes (Count)
system.mem_ctrl.rdPerTurnAround::96-127             8     17.39%     80.43% # Reads before turning the bus around for writes (Count)
system.mem_ctrl.rdPerTurnAround::128-159            1      2.17%     82.61% # Reads before turning the bus around for writes (Count)
system.mem_ctrl.rdPerTurnAround::160-191            2      4.35%     86.96% # Reads before turning the bus around for writes (Count)
system.mem_ctrl.rdPerTurnAround::192-223            1      2.17%     89.13% # Reads before turning the bus around for writes (Count)
system.mem_ctrl.rdPerTurnAround::224-255            1      2.17%     91.30% # Reads before turning the bus around for writes (Count)
system.mem_ctrl.rdPerTurnAround::256-287            1      2.17%     93.48% # Reads before turning the bus around for writes (Count)
system.mem_ctrl.rdPerTurnAround::320-351            1      2.17%     95.65% # Reads before turning the bus around for writes (Count)
system.mem_ctrl.rdPerTurnAround::352-383            1      2.17%     97.83% # Reads before turning the bus around for writes (Count)
system.mem_ctrl.rdPerTurnAround::992-1023            1      2.17%    100.00% # Reads before turning the bus around for writes (Count)
system.mem_ctrl.rdPerTurnAround::total             46                       # Reads before turning the bus around for writes (Count)
system.mem_ctrl.wrPerTurnAround::samples           46                       # Writes before turning the bus around for reads (Count)
system.mem_ctrl.wrPerTurnAround::mean       16.130435                       # Writes before turning the bus around for reads (Count)
system.mem_ctrl.wrPerTurnAround::gmean      16.123377                       # Writes before turning the bus around for reads (Count)
system.mem_ctrl.wrPerTurnAround::stdev       0.499275                       # Writes before turning the bus around for reads (Count)
system.mem_ctrl.wrPerTurnAround::16                43     93.48%     93.48% # Writes before turning the bus around for reads (Count)
system.mem_ctrl.wrPerTurnAround::18                 3      6.52%    100.00% # Writes before turning the bus around for reads (Count)
system.mem_ctrl.wrPerTurnAround::total             46                       # Writes before turning the bus around for reads (Count)
system.mem_ctrl.bytesReadWrQ                    12800                       # Total number of bytes read from write queue (Byte)
system.mem_ctrl.bytesReadSys                   372160                       # Total read bytes from the system interface side (Byte)
system.mem_ctrl.bytesWrittenSys                 51648                       # Total written bytes from the system interface side (Byte)
system.mem_ctrl.avgRdBWSys               74160424.52538803                       # Average system read bandwidth in Byte/s ((Byte/Second))
system.mem_ctrl.avgWrBWSys               10291911.02183803                       # Average system write bandwidth in Byte/s ((Byte/Second))
system.mem_ctrl.totGap                     5018251000                       # Total gap between requests (Tick)
system.mem_ctrl.avgGap                      757815.01                       # Average gap between requests ((Tick/Count))
system.mem_ctrl.requestorReadBytes::caches.controllers4       359360                       # Per-requestor bytes read from memory (Byte)
system.mem_ctrl.requestorWriteBytes::caches.controllers4        47488                       # Per-requestor bytes write to memory (Byte)
system.mem_ctrl.requestorReadRate::caches.controllers4 71609765.040421977639                       # Per-requestor bytes read from memory rate ((Byte/Second))
system.mem_ctrl.requestorWriteRate::caches.controllers4 9462946.689224062487                       # Per-requestor bytes write to memory rate ((Byte/Second))
system.mem_ctrl.requestorReadAccesses::caches.controllers4         5815                       # Per-requestor read serviced memory accesses (Count)
system.mem_ctrl.requestorWriteAccesses::caches.controllers4          807                       # Per-requestor write serviced memory accesses (Count)
system.mem_ctrl.requestorReadTotalLat::caches.controllers4    155373750                       # Per-requestor read total memory access latency (Tick)
system.mem_ctrl.requestorWriteTotalLat::caches.controllers4 110339617750                       # Per-requestor write total memory access latency (Tick)
system.mem_ctrl.requestorReadAvgLat::caches.controllers4     26719.48                       # Per-requestor read average memory access latency ((Tick/Count))
system.mem_ctrl.requestorWriteAvgLat::caches.controllers4 136728150.87                       # Per-requestor write average memory access latency ((Tick/Count))
system.mem_ctrl.dram.bytesRead::caches.controllers4       372160                       # Number of bytes read from this memory (Byte)
system.mem_ctrl.dram.bytesRead::total          372160                       # Number of bytes read from this memory (Byte)
system.mem_ctrl.dram.bytesWritten::caches.controllers4        51648                       # Number of bytes written to this memory (Byte)
system.mem_ctrl.dram.bytesWritten::total        51648                       # Number of bytes written to this memory (Byte)
system.mem_ctrl.dram.numReads::caches.controllers4         5815                       # Number of read requests responded to by this memory (Count)
system.mem_ctrl.dram.numReads::total             5815                       # Number of read requests responded to by this memory (Count)
system.mem_ctrl.dram.numWrites::caches.controllers4          807                       # Number of write requests responded to by this memory (Count)
system.mem_ctrl.dram.numWrites::total             807                       # Number of write requests responded to by this memory (Count)
system.mem_ctrl.dram.bwRead::caches.controllers4     74160425                       # Total read bandwidth from this memory ((Byte/Second))
system.mem_ctrl.dram.bwRead::total           74160425                       # Total read bandwidth from this memory ((Byte/Second))
system.mem_ctrl.dram.bwWrite::caches.controllers4     10291911                       # Write bandwidth from this memory ((Byte/Second))
system.mem_ctrl.dram.bwWrite::total          10291911                       # Write bandwidth from this memory ((Byte/Second))
system.mem_ctrl.dram.bwTotal::caches.controllers4     84452336                       # Total bandwidth to/from this memory ((Byte/Second))
system.mem_ctrl.dram.bwTotal::total          84452336                       # Total bandwidth to/from this memory ((Byte/Second))
system.mem_ctrl.dram.readBursts                  5615                       # Number of DRAM read bursts (Count)
system.mem_ctrl.dram.writeBursts                  742                       # Number of DRAM write bursts (Count)
system.mem_ctrl.dram.perBankRdBursts::0           589                       # Per bank write bursts (Count)
system.mem_ctrl.dram.perBankRdBursts::1           510                       # Per bank write bursts (Count)
system.mem_ctrl.dram.perBankRdBursts::2           373                       # Per bank write bursts (Count)
system.mem_ctrl.dram.perBankRdBursts::3           316                       # Per bank write bursts (Count)
system.mem_ctrl.dram.perBankRdBursts::4           242                       # Per bank write bursts (Count)
system.mem_ctrl.dram.perBankRdBursts::5           178                       # Per bank write bursts (Count)
system.mem_ctrl.dram.perBankRdBursts::6           204                       # Per bank write bursts (Count)
system.mem_ctrl.dram.perBankRdBursts::7           489                       # Per bank write bursts (Count)
system.mem_ctrl.dram.perBankRdBursts::8           609                       # Per bank write bursts (Count)
system.mem_ctrl.dram.perBankRdBursts::9           267                       # Per bank write bursts (Count)
system.mem_ctrl.dram.perBankRdBursts::10          289                       # Per bank write bursts (Count)
system.mem_ctrl.dram.perBankRdBursts::11          228                       # Per bank write bursts (Count)
system.mem_ctrl.dram.perBankRdBursts::12          147                       # Per bank write bursts (Count)
system.mem_ctrl.dram.perBankRdBursts::13          191                       # Per bank write bursts (Count)
system.mem_ctrl.dram.perBankRdBursts::14          544                       # Per bank write bursts (Count)
system.mem_ctrl.dram.perBankRdBursts::15          439                       # Per bank write bursts (Count)
system.mem_ctrl.dram.perBankWrBursts::0             0                       # Per bank write bursts (Count)
system.mem_ctrl.dram.perBankWrBursts::1            97                       # Per bank write bursts (Count)
system.mem_ctrl.dram.perBankWrBursts::2            42                       # Per bank write bursts (Count)
system.mem_ctrl.dram.perBankWrBursts::3            63                       # Per bank write bursts (Count)
system.mem_ctrl.dram.perBankWrBursts::4             0                       # Per bank write bursts (Count)
system.mem_ctrl.dram.perBankWrBursts::5            53                       # Per bank write bursts (Count)
system.mem_ctrl.dram.perBankWrBursts::6            23                       # Per bank write bursts (Count)
system.mem_ctrl.dram.perBankWrBursts::7            76                       # Per bank write bursts (Count)
system.mem_ctrl.dram.perBankWrBursts::8           199                       # Per bank write bursts (Count)
system.mem_ctrl.dram.perBankWrBursts::9             5                       # Per bank write bursts (Count)
system.mem_ctrl.dram.perBankWrBursts::10            0                       # Per bank write bursts (Count)
system.mem_ctrl.dram.perBankWrBursts::11            0                       # Per bank write bursts (Count)
system.mem_ctrl.dram.perBankWrBursts::12            0                       # Per bank write bursts (Count)
system.mem_ctrl.dram.perBankWrBursts::13            4                       # Per bank write bursts (Count)
system.mem_ctrl.dram.perBankWrBursts::14          117                       # Per bank write bursts (Count)
system.mem_ctrl.dram.perBankWrBursts::15           63                       # Per bank write bursts (Count)
system.mem_ctrl.dram.totQLat                 50092500                       # Total ticks spent queuing (Tick)
system.mem_ctrl.dram.totBusLat               28075000                       # Total ticks spent in databus transfers (Tick)
system.mem_ctrl.dram.totMemAccLat           155373750                       # Total ticks spent from burst creation until serviced by the DRAM (Tick)
system.mem_ctrl.dram.avgQLat                  8921.19                       # Average queueing delay per DRAM burst ((Tick/Count))
system.mem_ctrl.dram.avgBusLat                5000.00                       # Average bus latency per DRAM burst ((Tick/Count))
system.mem_ctrl.dram.avgMemAccLat            27671.19                       # Average memory access latency per DRAM burst ((Tick/Count))
system.mem_ctrl.dram.readRowHits                 4212                       # Number of row buffer hits during reads (Count)
system.mem_ctrl.dram.writeRowHits                 663                       # Number of row buffer hits during writes (Count)
system.mem_ctrl.dram.readRowHitRate             75.01                       # Row buffer hit rate for reads (Ratio)
system.mem_ctrl.dram.writeRowHitRate            89.35                       # Row buffer hit rate for writes (Ratio)
system.mem_ctrl.dram.bytesPerActivate::samples         1478                       # Bytes accessed per row activation (Byte)
system.mem_ctrl.dram.bytesPerActivate::mean   274.836265                       # Bytes accessed per row activation (Byte)
system.mem_ctrl.dram.bytesPerActivate::gmean   172.155631                       # Bytes accessed per row activation (Byte)
system.mem_ctrl.dram.bytesPerActivate::stdev   290.634622                       # Bytes accessed per row activation (Byte)
system.mem_ctrl.dram.bytesPerActivate::0-127          507     34.30%     34.30% # Bytes accessed per row activation (Byte)
system.mem_ctrl.dram.bytesPerActivate::128-255          453     30.65%     64.95% # Bytes accessed per row activation (Byte)
system.mem_ctrl.dram.bytesPerActivate::256-383          155     10.49%     75.44% # Bytes accessed per row activation (Byte)
system.mem_ctrl.dram.bytesPerActivate::384-511           83      5.62%     81.06% # Bytes accessed per row activation (Byte)
system.mem_ctrl.dram.bytesPerActivate::512-639           68      4.60%     85.66% # Bytes accessed per row activation (Byte)
system.mem_ctrl.dram.bytesPerActivate::640-767           51      3.45%     89.11% # Bytes accessed per row activation (Byte)
system.mem_ctrl.dram.bytesPerActivate::768-895           28      1.89%     91.00% # Bytes accessed per row activation (Byte)
system.mem_ctrl.dram.bytesPerActivate::896-1023           19      1.29%     92.29% # Bytes accessed per row activation (Byte)
system.mem_ctrl.dram.bytesPerActivate::1024-1151          114      7.71%    100.00% # Bytes accessed per row activation (Byte)
system.mem_ctrl.dram.bytesPerActivate::total         1478                       # Bytes accessed per row activation (Byte)
system.mem_ctrl.dram.bytesRead                 359360                       # Total number of bytes read from DRAM (Byte)
system.mem_ctrl.dram.bytesWritten               47488                       # Total number of bytes written to DRAM (Byte)
system.mem_ctrl.dram.avgRdBW                71.609765                       # Average DRAM read bandwidth in MiBytes/s ((Byte/Second))
system.mem_ctrl.dram.avgWrBW                 9.462947                       # Average DRAM write bandwidth in MiBytes/s ((Byte/Second))
system.mem_ctrl.dram.peakBW                  12800.00                       # Theoretical peak bandwidth in MiByte/s ((Byte/Second))
system.mem_ctrl.dram.busUtil                     0.63                       # Data bus utilization in percentage (Ratio)
system.mem_ctrl.dram.busUtilRead                 0.56                       # Data bus utilization in percentage for reads (Ratio)
system.mem_ctrl.dram.busUtilWrite                0.07                       # Data bus utilization in percentage for writes (Ratio)
system.mem_ctrl.dram.pageHitRate                76.69                       # Row buffer hit rate, read and write combined (Ratio)
system.mem_ctrl.dram.power_state.pwrStateResidencyTicks::UNDEFINED   5018310000                       # Cumulative time (in ticks) in various power states (Tick)
system.mem_ctrl.dram.rank0.actEnergy          4926600                       # Energy for activate commands per rank (pJ) (Joule)
system.mem_ctrl.dram.rank0.preEnergy          2610960                       # Energy for precharge commands per rank (pJ) (Joule)
system.mem_ctrl.dram.rank0.readEnergy        20713140                       # Energy for read commands per rank (pJ) (Joule)
system.mem_ctrl.dram.rank0.writeEnergy        1847880                       # Energy for write commands per rank (pJ) (Joule)
system.mem_ctrl.dram.rank0.refreshEnergy 395828160.000000                       # Energy for refresh commands per rank (pJ) (Joule)
system.mem_ctrl.dram.rank0.actBackEnergy    483675780                       # Energy for active background per rank (pJ) (Joule)
system.mem_ctrl.dram.rank0.preBackEnergy   1519725120                       # Energy for precharge background per rank (pJ) (Joule)
system.mem_ctrl.dram.rank0.actPowerDownEnergy            0                       # Energy for active power-down per rank (pJ) (Joule)
system.mem_ctrl.dram.rank0.prePowerDownEnergy            0                       # Energy for precharge power-down per rank (pJ) (Joule)
system.mem_ctrl.dram.rank0.selfRefreshEnergy            0                       # Energy for self refresh per rank (pJ) (Joule)
system.mem_ctrl.dram.rank0.totalEnergy     2429327640                       # Total energy per rank (pJ) (Joule)
system.mem_ctrl.dram.rank0.averagePower    484.092780                       # Core power per rank (mW) (Watt)
system.mem_ctrl.dram.rank0.totalIdleTime            0                       # Total Idle time Per DRAM Rank (Tick)
system.mem_ctrl.dram.rank0.pwrStateTime::IDLE   3946224500                       # Time in different power states (Tick)
system.mem_ctrl.dram.rank0.pwrStateTime::REF    167440000                       # Time in different power states (Tick)
system.mem_ctrl.dram.rank0.pwrStateTime::SREF            0                       # Time in different power states (Tick)
system.mem_ctrl.dram.rank0.pwrStateTime::PRE_PDN            0                       # Time in different power states (Tick)
system.mem_ctrl.dram.rank0.pwrStateTime::ACT    904645500                       # Time in different power states (Tick)
system.mem_ctrl.dram.rank0.pwrStateTime::ACT_PDN            0                       # Time in different power states (Tick)
system.mem_ctrl.dram.rank1.actEnergy          5654880                       # Energy for activate commands per rank (pJ) (Joule)
system.mem_ctrl.dram.rank1.preEnergy          2998050                       # Energy for precharge commands per rank (pJ) (Joule)
system.mem_ctrl.dram.rank1.readEnergy        19377960                       # Energy for read commands per rank (pJ) (Joule)
system.mem_ctrl.dram.rank1.writeEnergy        2025360                       # Energy for write commands per rank (pJ) (Joule)
system.mem_ctrl.dram.rank1.refreshEnergy 395828160.000000                       # Energy for refresh commands per rank (pJ) (Joule)
system.mem_ctrl.dram.rank1.actBackEnergy    478302960                       # Energy for active background per rank (pJ) (Joule)
system.mem_ctrl.dram.rank1.preBackEnergy   1524249600                       # Energy for precharge background per rank (pJ) (Joule)
system.mem_ctrl.dram.rank1.actPowerDownEnergy            0                       # Energy for active power-down per rank (pJ) (Joule)
system.mem_ctrl.dram.rank1.prePowerDownEnergy            0                       # Energy for precharge power-down per rank (pJ) (Joule)
system.mem_ctrl.dram.rank1.selfRefreshEnergy            0                       # Energy for self refresh per rank (pJ) (Joule)
system.mem_ctrl.dram.rank1.totalEnergy     2428436970                       # Total energy per rank (pJ) (Joule)
system.mem_ctrl.dram.rank1.averagePower    483.915296                       # Core power per rank (mW) (Watt)
system.mem_ctrl.dram.rank1.totalIdleTime            0                       # Total Idle time Per DRAM Rank (Tick)
system.mem_ctrl.dram.rank1.pwrStateTime::IDLE   3958266500                       # Time in different power states (Tick)
system.mem_ctrl.dram.rank1.pwrStateTime::REF    167440000                       # Time in different power states (Tick)
system.mem_ctrl.dram.rank1.pwrStateTime::SREF            0                       # Time in different power states (Tick)
system.mem_ctrl.dram.rank1.pwrStateTime::PRE_PDN            0                       # Time in different power states (Tick)
system.mem_ctrl.dram.rank1.pwrStateTime::ACT    892603500                       # Time in different power states (Tick)
system.mem_ctrl.dram.rank1.pwrStateTime::ACT_PDN            0                       # Time in different power states (Tick)
system.mem_ctrl.power_state.pwrStateResidencyTicks::UNDEFINED   5018310000                       # Cumulative time (in ticks) in various power states (Tick)
system.workload.inst.arm                            0                       # number of arm instructions executed (Count)
system.workload.inst.quiesce                        0                       # number of quiesce instructions executed (Count)

---------- End Simulation Statistics   ----------
