
---------- Begin Simulation Statistics ----------
simSeconds                                   0.111927                       # Number of seconds simulated (Second)
simTicks                                 111926719000                       # Number of ticks simulated (Tick)
finalTick                                111926719000                       # Number of ticks from beginning of simulation (restored from checkpoints and never reset) (Tick)
simFreq                                  1000000000000                       # The number of ticks per simulated second ((Tick/Second))
hostSeconds                                    117.57                       # Real time elapsed on the host (Second)
hostTickRate                                951967331                       # The number of ticks simulated per host second (ticks/s) ((Tick/Second))
hostMemory                                     789348                       # Number of bytes of host memory used (Byte)
simInsts                                     33439356                       # Number of instructions simulated (Count)
simOps                                       53915929                       # Number of ops (including micro ops) simulated (Count)
hostInstRate                                   284410                       # Simulator instruction rate (inst/s) ((Count/Second))
hostOpRate                                     458569                       # Simulator op (including micro ops) rate (op/s) ((Count/Second))
system.caches.m_outstandReqHistSeqr::bucket_size            1                       (Unspecified)
system.caches.m_outstandReqHistSeqr::max_bucket            9                       (Unspecified)
system.caches.m_outstandReqHistSeqr::samples     55741072                       (Unspecified)
system.caches.m_outstandReqHistSeqr::mean     1.000002                       (Unspecified)
system.caches.m_outstandReqHistSeqr::gmean     1.000002                       (Unspecified)
system.caches.m_outstandReqHistSeqr::stdev     0.001539                       (Unspecified)
system.caches.m_outstandReqHistSeqr      |           0      0.00%      0.00% |    55740940    100.00%    100.00% |         132      0.00%    100.00% |           0      0.00%    100.00% |           0      0.00%    100.00% |           0      0.00%    100.00% |           0      0.00%    100.00% |           0      0.00%    100.00% |           0      0.00%    100.00% |           0      0.00%    100.00% (Unspecified)
system.caches.m_outstandReqHistSeqr::total     55741072                       (Unspecified)
system.caches.m_latencyHistSeqr::bucket_size           64                       (Unspecified)
system.caches.m_latencyHistSeqr::max_bucket          639                       (Unspecified)
system.caches.m_latencyHistSeqr::samples     55741072                       (Unspecified)
system.caches.m_latencyHistSeqr::mean        1.007981                       (Unspecified)
system.caches.m_latencyHistSeqr::gmean       1.000485                       (Unspecified)
system.caches.m_latencyHistSeqr::stdev       0.820079                       (Unspecified)
system.caches.m_latencyHistSeqr          |    55739161    100.00%    100.00% |        1721      0.00%    100.00% |          83      0.00%    100.00% |          30      0.00%    100.00% |          46      0.00%    100.00% |          30      0.00%    100.00% |           0      0.00%    100.00% |           1      0.00%    100.00% |           0      0.00%    100.00% |           0      0.00%    100.00% (Unspecified)
system.caches.m_latencyHistSeqr::total       55741072                       (Unspecified)
system.caches.m_hitLatencyHistSeqr::bucket_size            1                       (Unspecified)
system.caches.m_hitLatencyHistSeqr::max_bucket            9                       (Unspecified)
system.caches.m_hitLatencyHistSeqr::samples     55734642                       (Unspecified)
system.caches.m_hitLatencyHistSeqr::mean            1                       (Unspecified)
system.caches.m_hitLatencyHistSeqr::gmean            1                       (Unspecified)
system.caches.m_hitLatencyHistSeqr       |           0      0.00%      0.00% |    55734642    100.00%    100.00% |           0      0.00%    100.00% |           0      0.00%    100.00% |           0      0.00%    100.00% |           0      0.00%    100.00% |           0      0.00%    100.00% |           0      0.00%    100.00% |           0      0.00%    100.00% |           0      0.00%    100.00% (Unspecified)
system.caches.m_hitLatencyHistSeqr::total     55734642                       (Unspecified)
system.caches.m_missLatencyHistSeqr::bucket_size           64                       (Unspecified)
system.caches.m_missLatencyHistSeqr::max_bucket          639                       (Unspecified)
system.caches.m_missLatencyHistSeqr::samples         6430                       (Unspecified)
system.caches.m_missLatencyHistSeqr::mean    70.185381                       (Unspecified)
system.caches.m_missLatencyHistSeqr::gmean    66.750534                       (Unspecified)
system.caches.m_missLatencyHistSeqr::stdev    32.314034                       (Unspecified)
system.caches.m_missLatencyHistSeqr      |        4519     70.28%     70.28% |        1721     26.77%     97.05% |          83      1.29%     98.34% |          30      0.47%     98.80% |          46      0.72%     99.52% |          30      0.47%     99.98% |           0      0.00%     99.98% |           1      0.02%    100.00% |           0      0.00%    100.00% |           0      0.00%    100.00% (Unspecified)
system.caches.m_missLatencyHistSeqr::total         6430                       (Unspecified)
system.caches.L1Cache_Controller.Load    |    50837880    100.00%    100.00% |           0      0.00%    100.00% |           0      0.00%    100.00% |           0      0.00%    100.00% (Unspecified)
system.caches.L1Cache_Controller.Load::total     50837880                       (Unspecified)
system.caches.L1Cache_Controller.Store   |     4903192    100.00%    100.00% |           0      0.00%    100.00% |           0      0.00%    100.00% |           0      0.00%    100.00% (Unspecified)
system.caches.L1Cache_Controller.Store::total      4903192                       (Unspecified)
system.caches.L1Cache_Controller.Replacement |     1917694    100.00%    100.00% |           0      0.00%    100.00% |           0      0.00%    100.00% |           0      0.00%    100.00% (Unspecified)
system.caches.L1Cache_Controller.Replacement::total      1917694                       (Unspecified)
system.caches.L1Cache_Controller.PutAck  |        5993    100.00%    100.00% |           0      0.00%    100.00% |           0      0.00%    100.00% |           0      0.00%    100.00% (Unspecified)
system.caches.L1Cache_Controller.PutAck::total         5993                       (Unspecified)
system.caches.L1Cache_Controller.DataDirNoAcks |        6430    100.00%    100.00% |           0      0.00%    100.00% |           0      0.00%    100.00% |           0      0.00%    100.00% (Unspecified)
system.caches.L1Cache_Controller.DataDirNoAcks::total         6430                       (Unspecified)
system.caches.L1Cache_Controller.I.Load  |        5177    100.00%    100.00% |           0      0.00%    100.00% |           0      0.00%    100.00% |           0      0.00%    100.00% (Unspecified)
system.caches.L1Cache_Controller.I.Load::total         5177                       (Unspecified)
system.caches.L1Cache_Controller.I.Store |        1072    100.00%    100.00% |           0      0.00%    100.00% |           0      0.00%    100.00% |           0      0.00%    100.00% (Unspecified)
system.caches.L1Cache_Controller.I.Store::total         1072                       (Unspecified)
system.caches.L1Cache_Controller.IS_D.DataDirNoAcks |        5177    100.00%    100.00% |           0      0.00%    100.00% |           0      0.00%    100.00% |           0      0.00%    100.00% (Unspecified)
system.caches.L1Cache_Controller.IS_D.DataDirNoAcks::total         5177                       (Unspecified)
system.caches.L1Cache_Controller.IM_AD.DataDirNoAcks |        1072    100.00%    100.00% |           0      0.00%    100.00% |           0      0.00%    100.00% |           0      0.00%    100.00% (Unspecified)
system.caches.L1Cache_Controller.IM_AD.DataDirNoAcks::total         1072                       (Unspecified)
system.caches.L1Cache_Controller.S.Load  |    41921052    100.00%    100.00% |           0      0.00%    100.00% |           0      0.00%    100.00% |           0      0.00%    100.00% (Unspecified)
system.caches.L1Cache_Controller.S.Load::total     41921052                       (Unspecified)
system.caches.L1Cache_Controller.S.Store |         181    100.00%    100.00% |           0      0.00%    100.00% |           0      0.00%    100.00% |           0      0.00%    100.00% (Unspecified)
system.caches.L1Cache_Controller.S.Store::total          181                       (Unspecified)
system.caches.L1Cache_Controller.S.Replacement |        4798    100.00%    100.00% |           0      0.00%    100.00% |           0      0.00%    100.00% |           0      0.00%    100.00% (Unspecified)
system.caches.L1Cache_Controller.S.Replacement::total         4798                       (Unspecified)
system.caches.L1Cache_Controller.SM_AD.DataDirNoAcks |         181    100.00%    100.00% |           0      0.00%    100.00% |           0      0.00%    100.00% |           0      0.00%    100.00% (Unspecified)
system.caches.L1Cache_Controller.SM_AD.DataDirNoAcks::total          181                       (Unspecified)
system.caches.L1Cache_Controller.M.Load  |     8911651    100.00%    100.00% |           0      0.00%    100.00% |           0      0.00%    100.00% |           0      0.00%    100.00% (Unspecified)
system.caches.L1Cache_Controller.M.Load::total      8911651                       (Unspecified)
system.caches.L1Cache_Controller.M.Store |     4901939    100.00%    100.00% |           0      0.00%    100.00% |           0      0.00%    100.00% |           0      0.00%    100.00% (Unspecified)
system.caches.L1Cache_Controller.M.Store::total      4901939                       (Unspecified)
system.caches.L1Cache_Controller.M.Replacement |        1195    100.00%    100.00% |           0      0.00%    100.00% |           0      0.00%    100.00% |           0      0.00%    100.00% (Unspecified)
system.caches.L1Cache_Controller.M.Replacement::total         1195                       (Unspecified)
system.caches.L1Cache_Controller.MI_A.Replacement |      381165    100.00%    100.00% |           0      0.00%    100.00% |           0      0.00%    100.00% |           0      0.00%    100.00% (Unspecified)
system.caches.L1Cache_Controller.MI_A.Replacement::total       381165                       (Unspecified)
system.caches.L1Cache_Controller.MI_A.PutAck |        1195    100.00%    100.00% |           0      0.00%    100.00% |           0      0.00%    100.00% |           0      0.00%    100.00% (Unspecified)
system.caches.L1Cache_Controller.MI_A.PutAck::total         1195                       (Unspecified)
system.caches.L1Cache_Controller.SI_A.Replacement |     1530536    100.00%    100.00% |           0      0.00%    100.00% |           0      0.00%    100.00% |           0      0.00%    100.00% (Unspecified)
system.caches.L1Cache_Controller.SI_A.Replacement::total      1530536                       (Unspecified)
system.caches.L1Cache_Controller.SI_A.PutAck |        4798    100.00%    100.00% |           0      0.00%    100.00% |           0      0.00%    100.00% |           0      0.00%    100.00% (Unspecified)
system.caches.L1Cache_Controller.SI_A.PutAck::total         4798                       (Unspecified)
system.caches.Directory_Controller.GetS          5177      0.00%      0.00% (Unspecified)
system.caches.Directory_Controller.GetM          1253      0.00%      0.00% (Unspecified)
system.caches.Directory_Controller.PutSLast         4798      0.00%      0.00% (Unspecified)
system.caches.Directory_Controller.PutMOwner         1195      0.00%      0.00% (Unspecified)
system.caches.Directory_Controller.MemData         6430      0.00%      0.00% (Unspecified)
system.caches.Directory_Controller.MemAck         1195      0.00%      0.00% (Unspecified)
system.caches.Directory_Controller.I.GetS         5177      0.00%      0.00% (Unspecified)
system.caches.Directory_Controller.I.GetM         1072      0.00%      0.00% (Unspecified)
system.caches.Directory_Controller.S.GetM          181      0.00%      0.00% (Unspecified)
system.caches.Directory_Controller.S.PutSLast         4798      0.00%      0.00% (Unspecified)
system.caches.Directory_Controller.M.PutMOwner         1195      0.00%      0.00% (Unspecified)
system.caches.Directory_Controller.S_m.MemData         5177      0.00%      0.00% (Unspecified)
system.caches.Directory_Controller.M_m.MemData         1253      0.00%      0.00% (Unspecified)
system.caches.Directory_Controller.MI_m.MemAck         1195      0.00%      0.00% (Unspecified)
system.caches.MachineType.Directory.miss_mach_latency_hist_seqr::bucket_size           64                       (Unspecified)
system.caches.MachineType.Directory.miss_mach_latency_hist_seqr::max_bucket          639                       (Unspecified)
system.caches.MachineType.Directory.miss_mach_latency_hist_seqr::samples         6430                       (Unspecified)
system.caches.MachineType.Directory.miss_mach_latency_hist_seqr::mean    70.185381                       (Unspecified)
system.caches.MachineType.Directory.miss_mach_latency_hist_seqr::gmean    66.750534                       (Unspecified)
system.caches.MachineType.Directory.miss_mach_latency_hist_seqr::stdev    32.314034                       (Unspecified)
system.caches.MachineType.Directory.miss_mach_latency_hist_seqr |        4519     70.28%     70.28% |        1721     26.77%     97.05% |          83      1.29%     98.34% |          30      0.47%     98.80% |          46      0.72%     99.52% |          30      0.47%     99.98% |           0      0.00%     99.98% |           1      0.02%    100.00% |           0      0.00%    100.00% |           0      0.00%    100.00% (Unspecified)
system.caches.MachineType.Directory.miss_mach_latency_hist_seqr::total         6430                       (Unspecified)
system.caches.MachineType.Directory.miss_latency_hist_seqr.issue_to_initial_request::bucket_size            1                       (Unspecified)
system.caches.MachineType.Directory.miss_latency_hist_seqr.issue_to_initial_request::max_bucket            9                       (Unspecified)
system.caches.MachineType.Directory.miss_latency_hist_seqr.issue_to_initial_request::samples            1                       (Unspecified)
system.caches.MachineType.Directory.miss_latency_hist_seqr.issue_to_initial_request::stdev          nan                       (Unspecified)
system.caches.MachineType.Directory.miss_latency_hist_seqr.issue_to_initial_request |           1    100.00%    100.00% |           0      0.00%    100.00% |           0      0.00%    100.00% |           0      0.00%    100.00% |           0      0.00%    100.00% |           0      0.00%    100.00% |           0      0.00%    100.00% |           0      0.00%    100.00% |           0      0.00%    100.00% |           0      0.00%    100.00% (Unspecified)
system.caches.MachineType.Directory.miss_latency_hist_seqr.issue_to_initial_request::total            1                       (Unspecified)
system.caches.MachineType.Directory.miss_latency_hist_seqr.initial_to_forward::bucket_size            1                       (Unspecified)
system.caches.MachineType.Directory.miss_latency_hist_seqr.initial_to_forward::max_bucket            9                       (Unspecified)
system.caches.MachineType.Directory.miss_latency_hist_seqr.initial_to_forward::samples            1                       (Unspecified)
system.caches.MachineType.Directory.miss_latency_hist_seqr.initial_to_forward::stdev          nan                       (Unspecified)
system.caches.MachineType.Directory.miss_latency_hist_seqr.initial_to_forward |           1    100.00%    100.00% |           0      0.00%    100.00% |           0      0.00%    100.00% |           0      0.00%    100.00% |           0      0.00%    100.00% |           0      0.00%    100.00% |           0      0.00%    100.00% |           0      0.00%    100.00% |           0      0.00%    100.00% |           0      0.00%    100.00% (Unspecified)
system.caches.MachineType.Directory.miss_latency_hist_seqr.initial_to_forward::total            1                       (Unspecified)
system.caches.MachineType.Directory.miss_latency_hist_seqr.forward_to_first_response::bucket_size            1                       (Unspecified)
system.caches.MachineType.Directory.miss_latency_hist_seqr.forward_to_first_response::max_bucket            9                       (Unspecified)
system.caches.MachineType.Directory.miss_latency_hist_seqr.forward_to_first_response::samples            1                       (Unspecified)
system.caches.MachineType.Directory.miss_latency_hist_seqr.forward_to_first_response::stdev          nan                       (Unspecified)
system.caches.MachineType.Directory.miss_latency_hist_seqr.forward_to_first_response |           1    100.00%    100.00% |           0      0.00%    100.00% |           0      0.00%    100.00% |           0      0.00%    100.00% |           0      0.00%    100.00% |           0      0.00%    100.00% |           0      0.00%    100.00% |           0      0.00%    100.00% |           0      0.00%    100.00% |           0      0.00%    100.00% (Unspecified)
system.caches.MachineType.Directory.miss_latency_hist_seqr.forward_to_first_response::total            1                       (Unspecified)
system.caches.MachineType.Directory.miss_latency_hist_seqr.first_response_to_completion::bucket_size            8                       (Unspecified)
system.caches.MachineType.Directory.miss_latency_hist_seqr.first_response_to_completion::max_bucket           79                       (Unspecified)
system.caches.MachineType.Directory.miss_latency_hist_seqr.first_response_to_completion::samples            1                       (Unspecified)
system.caches.MachineType.Directory.miss_latency_hist_seqr.first_response_to_completion::mean           73                       (Unspecified)
system.caches.MachineType.Directory.miss_latency_hist_seqr.first_response_to_completion::gmean    73.000000                       (Unspecified)
system.caches.MachineType.Directory.miss_latency_hist_seqr.first_response_to_completion::stdev          nan                       (Unspecified)
system.caches.MachineType.Directory.miss_latency_hist_seqr.first_response_to_completion |           0      0.00%      0.00% |           0      0.00%      0.00% |           0      0.00%      0.00% |           0      0.00%      0.00% |           0      0.00%      0.00% |           0      0.00%      0.00% |           0      0.00%      0.00% |           0      0.00%      0.00% |           0      0.00%      0.00% |           1    100.00%    100.00% (Unspecified)
system.caches.MachineType.Directory.miss_latency_hist_seqr.first_response_to_completion::total            1                       (Unspecified)
system.caches.MachineType.Directory.incomplete_times_seqr         6429                       (Unspecified)
system.caches.RequestType.LD.latency_hist_seqr::bucket_size           64                       (Unspecified)
system.caches.RequestType.LD.latency_hist_seqr::max_bucket          639                       (Unspecified)
system.caches.RequestType.LD.latency_hist_seqr::samples      9280412                       (Unspecified)
system.caches.RequestType.LD.latency_hist_seqr::mean     1.023021                       (Unspecified)
system.caches.RequestType.LD.latency_hist_seqr::gmean     1.001395                       (Unspecified)
system.caches.RequestType.LD.latency_hist_seqr::stdev     1.400942                       (Unspecified)
system.caches.RequestType.LD.latency_hist_seqr |     9279534     99.99%     99.99% |         788      0.01%    100.00% |          34      0.00%    100.00% |          17      0.00%    100.00% |          24      0.00%    100.00% |          14      0.00%    100.00% |           0      0.00%    100.00% |           1      0.00%    100.00% |           0      0.00%    100.00% |           0      0.00%    100.00% (Unspecified)
system.caches.RequestType.LD.latency_hist_seqr::total      9280412                       (Unspecified)
system.caches.RequestType.LD.hit_latency_hist_seqr::bucket_size            1                       (Unspecified)
system.caches.RequestType.LD.hit_latency_hist_seqr::max_bucket            9                       (Unspecified)
system.caches.RequestType.LD.hit_latency_hist_seqr::samples      9277334                       (Unspecified)
system.caches.RequestType.LD.hit_latency_hist_seqr::mean            1                       (Unspecified)
system.caches.RequestType.LD.hit_latency_hist_seqr::gmean            1                       (Unspecified)
system.caches.RequestType.LD.hit_latency_hist_seqr |           0      0.00%      0.00% |     9277334    100.00%    100.00% |           0      0.00%    100.00% |           0      0.00%    100.00% |           0      0.00%    100.00% |           0      0.00%    100.00% |           0      0.00%    100.00% |           0      0.00%    100.00% |           0      0.00%    100.00% |           0      0.00%    100.00% (Unspecified)
system.caches.RequestType.LD.hit_latency_hist_seqr::total      9277334                       (Unspecified)
system.caches.RequestType.LD.miss_latency_hist_seqr::bucket_size           64                       (Unspecified)
system.caches.RequestType.LD.miss_latency_hist_seqr::max_bucket          639                       (Unspecified)
system.caches.RequestType.LD.miss_latency_hist_seqr::samples         3078                       (Unspecified)
system.caches.RequestType.LD.miss_latency_hist_seqr::mean    70.409682                       (Unspecified)
system.caches.RequestType.LD.miss_latency_hist_seqr::gmean    66.872393                       (Unspecified)
system.caches.RequestType.LD.miss_latency_hist_seqr::stdev    33.192843                       (Unspecified)
system.caches.RequestType.LD.miss_latency_hist_seqr |        2200     71.47%     71.47% |         788     25.60%     97.08% |          34      1.10%     98.18% |          17      0.55%     98.73% |          24      0.78%     99.51% |          14      0.45%     99.97% |           0      0.00%     99.97% |           1      0.03%    100.00% |           0      0.00%    100.00% |           0      0.00%    100.00% (Unspecified)
system.caches.RequestType.LD.miss_latency_hist_seqr::total         3078                       (Unspecified)
system.caches.RequestType.ST.latency_hist_seqr::bucket_size           64                       (Unspecified)
system.caches.RequestType.ST.latency_hist_seqr::max_bucket          639                       (Unspecified)
system.caches.RequestType.ST.latency_hist_seqr::samples      4554552                       (Unspecified)
system.caches.RequestType.ST.latency_hist_seqr::mean     1.018207                       (Unspecified)
system.caches.RequestType.ST.latency_hist_seqr::gmean     1.001110                       (Unspecified)
system.caches.RequestType.ST.latency_hist_seqr::stdev     1.239138                       (Unspecified)
system.caches.RequestType.ST.latency_hist_seqr |     4554074     99.99%     99.99% |         435      0.01%    100.00% |          23      0.00%    100.00% |           6      0.00%    100.00% |           8      0.00%    100.00% |           6      0.00%    100.00% |           0      0.00%    100.00% |           0      0.00%    100.00% |           0      0.00%    100.00% |           0      0.00%    100.00% (Unspecified)
system.caches.RequestType.ST.latency_hist_seqr::total      4554552                       (Unspecified)
system.caches.RequestType.ST.hit_latency_hist_seqr::bucket_size            1                       (Unspecified)
system.caches.RequestType.ST.hit_latency_hist_seqr::max_bucket            9                       (Unspecified)
system.caches.RequestType.ST.hit_latency_hist_seqr::samples      4553344                       (Unspecified)
system.caches.RequestType.ST.hit_latency_hist_seqr::mean            1                       (Unspecified)
system.caches.RequestType.ST.hit_latency_hist_seqr::gmean            1                       (Unspecified)
system.caches.RequestType.ST.hit_latency_hist_seqr |           0      0.00%      0.00% |     4553344    100.00%    100.00% |           0      0.00%    100.00% |           0      0.00%    100.00% |           0      0.00%    100.00% |           0      0.00%    100.00% |           0      0.00%    100.00% |           0      0.00%    100.00% |           0      0.00%    100.00% |           0      0.00%    100.00% (Unspecified)
system.caches.RequestType.ST.hit_latency_hist_seqr::total      4553344                       (Unspecified)
system.caches.RequestType.ST.miss_latency_hist_seqr::bucket_size           64                       (Unspecified)
system.caches.RequestType.ST.miss_latency_hist_seqr::max_bucket          639                       (Unspecified)
system.caches.RequestType.ST.miss_latency_hist_seqr::samples         1208                       (Unspecified)
system.caches.RequestType.ST.miss_latency_hist_seqr::mean    69.648179                       (Unspecified)
system.caches.RequestType.ST.miss_latency_hist_seqr::gmean    65.552542                       (Unspecified)
system.caches.RequestType.ST.miss_latency_hist_seqr::stdev    32.844509                       (Unspecified)
system.caches.RequestType.ST.miss_latency_hist_seqr |         730     60.43%     60.43% |         435     36.01%     96.44% |          23      1.90%     98.34% |           6      0.50%     98.84% |           8      0.66%     99.50% |           6      0.50%    100.00% |           0      0.00%    100.00% |           0      0.00%    100.00% |           0      0.00%    100.00% |           0      0.00%    100.00% (Unspecified)
system.caches.RequestType.ST.miss_latency_hist_seqr::total         1208                       (Unspecified)
system.caches.RequestType.IFETCH.latency_hist_seqr::bucket_size           64                       (Unspecified)
system.caches.RequestType.IFETCH.latency_hist_seqr::max_bucket          639                       (Unspecified)
system.caches.RequestType.IFETCH.latency_hist_seqr::samples     41557468                       (Unspecified)
system.caches.RequestType.IFETCH.latency_hist_seqr::mean     1.003511                       (Unspecified)
system.caches.RequestType.IFETCH.latency_hist_seqr::gmean     1.000213                       (Unspecified)
system.caches.RequestType.IFETCH.latency_hist_seqr::stdev     0.540473                       (Unspecified)
system.caches.RequestType.IFETCH.latency_hist_seqr |    41556923    100.00%    100.00% |         488      0.00%    100.00% |          26      0.00%    100.00% |           7      0.00%    100.00% |          14      0.00%    100.00% |          10      0.00%    100.00% |           0      0.00%    100.00% |           0      0.00%    100.00% |           0      0.00%    100.00% |           0      0.00%    100.00% (Unspecified)
system.caches.RequestType.IFETCH.latency_hist_seqr::total     41557468                       (Unspecified)
system.caches.RequestType.IFETCH.hit_latency_hist_seqr::bucket_size            1                       (Unspecified)
system.caches.RequestType.IFETCH.hit_latency_hist_seqr::max_bucket            9                       (Unspecified)
system.caches.RequestType.IFETCH.hit_latency_hist_seqr::samples     41555369                       (Unspecified)
system.caches.RequestType.IFETCH.hit_latency_hist_seqr::mean            1                       (Unspecified)
system.caches.RequestType.IFETCH.hit_latency_hist_seqr::gmean            1                       (Unspecified)
system.caches.RequestType.IFETCH.hit_latency_hist_seqr |           0      0.00%      0.00% |    41555369    100.00%    100.00% |           0      0.00%    100.00% |           0      0.00%    100.00% |           0      0.00%    100.00% |           0      0.00%    100.00% |           0      0.00%    100.00% |           0      0.00%    100.00% |           0      0.00%    100.00% |           0      0.00%    100.00% (Unspecified)
system.caches.RequestType.IFETCH.hit_latency_hist_seqr::total     41555369                       (Unspecified)
system.caches.RequestType.IFETCH.miss_latency_hist_seqr::bucket_size           64                       (Unspecified)
system.caches.RequestType.IFETCH.miss_latency_hist_seqr::max_bucket          639                       (Unspecified)
system.caches.RequestType.IFETCH.miss_latency_hist_seqr::samples         2099                       (Unspecified)
system.caches.RequestType.IFETCH.miss_latency_hist_seqr::mean    70.513578                       (Unspecified)
system.caches.RequestType.IFETCH.miss_latency_hist_seqr::gmean    67.653781                       (Unspecified)
system.caches.RequestType.IFETCH.miss_latency_hist_seqr::stdev    30.854129                       (Unspecified)
system.caches.RequestType.IFETCH.miss_latency_hist_seqr |        1554     74.04%     74.04% |         488     23.25%     97.28% |          26      1.24%     98.52% |           7      0.33%     98.86% |          14      0.67%     99.52% |          10      0.48%    100.00% |           0      0.00%    100.00% |           0      0.00%    100.00% |           0      0.00%    100.00% |           0      0.00%    100.00% (Unspecified)
system.caches.RequestType.IFETCH.miss_latency_hist_seqr::total         2099                       (Unspecified)
system.caches.RequestType.RMW_Read.latency_hist_seqr::bucket_size           16                       (Unspecified)
system.caches.RequestType.RMW_Read.latency_hist_seqr::max_bucket          159                       (Unspecified)
system.caches.RequestType.RMW_Read.latency_hist_seqr::samples       348640                       (Unspecified)
system.caches.RequestType.RMW_Read.latency_hist_seqr::mean     1.006835                       (Unspecified)
system.caches.RequestType.RMW_Read.latency_hist_seqr::gmean     1.000508                       (Unspecified)
system.caches.RequestType.RMW_Read.latency_hist_seqr::stdev     0.627527                       (Unspecified)
system.caches.RequestType.RMW_Read.latency_hist_seqr |      348595     99.99%     99.99% |           4      0.00%     99.99% |           6      0.00%     99.99% |          25      0.01%    100.00% |           8      0.00%    100.00% |           2      0.00%    100.00% |           0      0.00%    100.00% |           0      0.00%    100.00% |           0      0.00%    100.00% |           0      0.00%    100.00% (Unspecified)
system.caches.RequestType.RMW_Read.latency_hist_seqr::total       348640                       (Unspecified)
system.caches.RequestType.RMW_Read.hit_latency_hist_seqr::bucket_size            1                       (Unspecified)
system.caches.RequestType.RMW_Read.hit_latency_hist_seqr::max_bucket            9                       (Unspecified)
system.caches.RequestType.RMW_Read.hit_latency_hist_seqr::samples       348595                       (Unspecified)
system.caches.RequestType.RMW_Read.hit_latency_hist_seqr::mean            1                       (Unspecified)
system.caches.RequestType.RMW_Read.hit_latency_hist_seqr::gmean            1                       (Unspecified)
system.caches.RequestType.RMW_Read.hit_latency_hist_seqr |           0      0.00%      0.00% |      348595    100.00%    100.00% |           0      0.00%    100.00% |           0      0.00%    100.00% |           0      0.00%    100.00% |           0      0.00%    100.00% |           0      0.00%    100.00% |           0      0.00%    100.00% |           0      0.00%    100.00% |           0      0.00%    100.00% (Unspecified)
system.caches.RequestType.RMW_Read.hit_latency_hist_seqr::total       348595                       (Unspecified)
system.caches.RequestType.RMW_Read.miss_latency_hist_seqr::bucket_size           16                       (Unspecified)
system.caches.RequestType.RMW_Read.miss_latency_hist_seqr::max_bucket          159                       (Unspecified)
system.caches.RequestType.RMW_Read.miss_latency_hist_seqr::samples           45                       (Unspecified)
system.caches.RequestType.RMW_Read.miss_latency_hist_seqr::mean    53.955556                       (Unspecified)
system.caches.RequestType.RMW_Read.miss_latency_hist_seqr::gmean    51.183796                       (Unspecified)
system.caches.RequestType.RMW_Read.miss_latency_hist_seqr::stdev    15.893045                       (Unspecified)
system.caches.RequestType.RMW_Read.miss_latency_hist_seqr |           0      0.00%      0.00% |           4      8.89%      8.89% |           6     13.33%     22.22% |          25     55.56%     77.78% |           8     17.78%     95.56% |           2      4.44%    100.00% |           0      0.00%    100.00% |           0      0.00%    100.00% |           0      0.00%    100.00% |           0      0.00%    100.00% (Unspecified)
system.caches.RequestType.RMW_Read.miss_latency_hist_seqr::total           45                       (Unspecified)
system.caches.RequestTypeMachineType.LD.Directory.miss_type_mach_latency_hist_seqr::bucket_size           64                       (Unspecified)
system.caches.RequestTypeMachineType.LD.Directory.miss_type_mach_latency_hist_seqr::max_bucket          639                       (Unspecified)
system.caches.RequestTypeMachineType.LD.Directory.miss_type_mach_latency_hist_seqr::samples         3078                       (Unspecified)
system.caches.RequestTypeMachineType.LD.Directory.miss_type_mach_latency_hist_seqr::mean    70.409682                       (Unspecified)
system.caches.RequestTypeMachineType.LD.Directory.miss_type_mach_latency_hist_seqr::gmean    66.872393                       (Unspecified)
system.caches.RequestTypeMachineType.LD.Directory.miss_type_mach_latency_hist_seqr::stdev    33.192843                       (Unspecified)
system.caches.RequestTypeMachineType.LD.Directory.miss_type_mach_latency_hist_seqr |        2200     71.47%     71.47% |         788     25.60%     97.08% |          34      1.10%     98.18% |          17      0.55%     98.73% |          24      0.78%     99.51% |          14      0.45%     99.97% |           0      0.00%     99.97% |           1      0.03%    100.00% |           0      0.00%    100.00% |           0      0.00%    100.00% (Unspecified)
system.caches.RequestTypeMachineType.LD.Directory.miss_type_mach_latency_hist_seqr::total         3078                       (Unspecified)
system.caches.RequestTypeMachineType.ST.Directory.miss_type_mach_latency_hist_seqr::bucket_size           64                       (Unspecified)
system.caches.RequestTypeMachineType.ST.Directory.miss_type_mach_latency_hist_seqr::max_bucket          639                       (Unspecified)
system.caches.RequestTypeMachineType.ST.Directory.miss_type_mach_latency_hist_seqr::samples         1208                       (Unspecified)
system.caches.RequestTypeMachineType.ST.Directory.miss_type_mach_latency_hist_seqr::mean    69.648179                       (Unspecified)
system.caches.RequestTypeMachineType.ST.Directory.miss_type_mach_latency_hist_seqr::gmean    65.552542                       (Unspecified)
system.caches.RequestTypeMachineType.ST.Directory.miss_type_mach_latency_hist_seqr::stdev    32.844509                       (Unspecified)
system.caches.RequestTypeMachineType.ST.Directory.miss_type_mach_latency_hist_seqr |         730     60.43%     60.43% |         435     36.01%     96.44% |          23      1.90%     98.34% |           6      0.50%     98.84% |           8      0.66%     99.50% |           6      0.50%    100.00% |           0      0.00%    100.00% |           0      0.00%    100.00% |           0      0.00%    100.00% |           0      0.00%    100.00% (Unspecified)
system.caches.RequestTypeMachineType.ST.Directory.miss_type_mach_latency_hist_seqr::total         1208                       (Unspecified)
system.caches.RequestTypeMachineType.IFETCH.Directory.miss_type_mach_latency_hist_seqr::bucket_size           64                       (Unspecified)
system.caches.RequestTypeMachineType.IFETCH.Directory.miss_type_mach_latency_hist_seqr::max_bucket          639                       (Unspecified)
system.caches.RequestTypeMachineType.IFETCH.Directory.miss_type_mach_latency_hist_seqr::samples         2099                       (Unspecified)
system.caches.RequestTypeMachineType.IFETCH.Directory.miss_type_mach_latency_hist_seqr::mean    70.513578                       (Unspecified)
system.caches.RequestTypeMachineType.IFETCH.Directory.miss_type_mach_latency_hist_seqr::gmean    67.653781                       (Unspecified)
system.caches.RequestTypeMachineType.IFETCH.Directory.miss_type_mach_latency_hist_seqr::stdev    30.854129                       (Unspecified)
system.caches.RequestTypeMachineType.IFETCH.Directory.miss_type_mach_latency_hist_seqr |        1554     74.04%     74.04% |         488     23.25%     97.28% |          26      1.24%     98.52% |           7      0.33%     98.86% |          14      0.67%     99.52% |          10      0.48%    100.00% |           0      0.00%    100.00% |           0      0.00%    100.00% |           0      0.00%    100.00% |           0      0.00%    100.00% (Unspecified)
system.caches.RequestTypeMachineType.IFETCH.Directory.miss_type_mach_latency_hist_seqr::total         2099                       (Unspecified)
system.caches.RequestTypeMachineType.RMW_Read.Directory.miss_type_mach_latency_hist_seqr::bucket_size           16                       (Unspecified)
system.caches.RequestTypeMachineType.RMW_Read.Directory.miss_type_mach_latency_hist_seqr::max_bucket          159                       (Unspecified)
system.caches.RequestTypeMachineType.RMW_Read.Directory.miss_type_mach_latency_hist_seqr::samples           45                       (Unspecified)
system.caches.RequestTypeMachineType.RMW_Read.Directory.miss_type_mach_latency_hist_seqr::mean    53.955556                       (Unspecified)
system.caches.RequestTypeMachineType.RMW_Read.Directory.miss_type_mach_latency_hist_seqr::gmean    51.183796                       (Unspecified)
system.caches.RequestTypeMachineType.RMW_Read.Directory.miss_type_mach_latency_hist_seqr::stdev    15.893045                       (Unspecified)
system.caches.RequestTypeMachineType.RMW_Read.Directory.miss_type_mach_latency_hist_seqr |           0      0.00%      0.00% |           4      8.89%      8.89% |           6     13.33%     22.22% |          25     55.56%     77.78% |           8     17.78%     95.56% |           2      4.44%    100.00% |           0      0.00%    100.00% |           0      0.00%    100.00% |           0      0.00%    100.00% |           0      0.00%    100.00% (Unspecified)
system.caches.RequestTypeMachineType.RMW_Read.Directory.miss_type_mach_latency_hist_seqr::total           45                       (Unspecified)
system.caches.controllers0.fullyBusyCycles        59930                       # cycles for which number of transistions == max transitions (Unspecified)
system.caches.controllers0.cacheMemory.m_demand_hits            0                       # Number of cache demand hits (Unspecified)
system.caches.controllers0.cacheMemory.m_demand_misses            0                       # Number of cache demand misses (Unspecified)
system.caches.controllers0.cacheMemory.m_demand_accesses            0                       # Number of cache demand accesses (Unspecified)
system.caches.controllers0.forwardFromDir.m_buf_msgs     0.000054                       # Average number of messages in buffer (Unspecified)
system.caches.controllers0.forwardFromDir.m_stall_time  4999.302847                       # Average number of cycles messages are stalled in this MB (Unspecified)
system.caches.controllers0.mandatoryQueue.m_buf_msgs     0.498550                       # Average number of messages in buffer (Unspecified)
system.caches.controllers0.mandatoryQueue.m_stall_time  1033.472517                       # Average number of cycles messages are stalled in this MB (Unspecified)
system.caches.controllers0.power_state.pwrStateResidencyTicks::UNDEFINED 111926719000                       # Cumulative time (in ticks) in various power states (Tick)
system.caches.controllers0.requestToDir.m_buf_msgs     0.000111                       # Average number of messages in buffer (Unspecified)
system.caches.controllers0.requestToDir.m_stall_time   999.999982                       # Average number of cycles messages are stalled in this MB (Unspecified)
system.caches.controllers0.responseFromDirOrSibling.m_buf_msgs     0.000057                       # Average number of messages in buffer (Unspecified)
system.caches.controllers0.responseFromDirOrSibling.m_stall_time  4999.996739                       # Average number of cycles messages are stalled in this MB (Unspecified)
system.caches.controllers1.cacheMemory.m_demand_hits            0                       # Number of cache demand hits (Unspecified)
system.caches.controllers1.cacheMemory.m_demand_misses            0                       # Number of cache demand misses (Unspecified)
system.caches.controllers1.cacheMemory.m_demand_accesses            0                       # Number of cache demand accesses (Unspecified)
system.caches.controllers1.power_state.pwrStateResidencyTicks::UNDEFINED 111926719000                       # Cumulative time (in ticks) in various power states (Tick)
system.caches.controllers2.cacheMemory.m_demand_hits            0                       # Number of cache demand hits (Unspecified)
system.caches.controllers2.cacheMemory.m_demand_misses            0                       # Number of cache demand misses (Unspecified)
system.caches.controllers2.cacheMemory.m_demand_accesses            0                       # Number of cache demand accesses (Unspecified)
system.caches.controllers2.power_state.pwrStateResidencyTicks::UNDEFINED 111926719000                       # Cumulative time (in ticks) in various power states (Tick)
system.caches.controllers3.cacheMemory.m_demand_hits            0                       # Number of cache demand hits (Unspecified)
system.caches.controllers3.cacheMemory.m_demand_misses            0                       # Number of cache demand misses (Unspecified)
system.caches.controllers3.cacheMemory.m_demand_accesses            0                       # Number of cache demand accesses (Unspecified)
system.caches.controllers3.power_state.pwrStateResidencyTicks::UNDEFINED 111926719000                       # Cumulative time (in ticks) in various power states (Tick)
system.caches.controllers4.forwardToCache.m_buf_msgs     0.000055                       # Average number of messages in buffer (Unspecified)
system.caches.controllers4.forwardToCache.m_stall_time   999.982015                       # Average number of cycles messages are stalled in this MB (Unspecified)
system.caches.controllers4.power_state.pwrStateResidencyTicks::UNDEFINED 111926719000                       # Cumulative time (in ticks) in various power states (Tick)
system.caches.controllers4.requestFromCache.m_buf_msgs     0.000111                       # Average number of messages in buffer (Unspecified)
system.caches.controllers4.requestFromCache.m_stall_time  4999.999732                       # Average number of cycles messages are stalled in this MB (Unspecified)
system.caches.controllers4.requestToMemory.m_buf_msgs     0.000068                       # Average number of messages in buffer (Unspecified)
system.caches.controllers4.requestToMemory.m_stall_time   999.999937                       # Average number of cycles messages are stalled in this MB (Unspecified)
system.caches.controllers4.responseFromMemory.m_buf_msgs     0.000087                       # Average number of messages in buffer (Unspecified)
system.caches.controllers4.responseFromMemory.m_stall_time   999.999392                       # Average number of cycles messages are stalled in this MB (Unspecified)
system.caches.controllers4.responseToCache.m_buf_msgs     0.000057                       # Average number of messages in buffer (Unspecified)
system.caches.controllers4.responseToCache.m_stall_time   999.999384                       # Average number of cycles messages are stalled in this MB (Unspecified)
system.caches.network.msg_count.Control         34442                       (Unspecified)
system.caches.network.msg_byte.Control         275536                       (Unspecified)
system.caches.network.msg_count.Data            15250                       (Unspecified)
system.caches.network.msg_byte.Data           1098000                       (Unspecified)
system.caches.network.int_link_buffers49.m_buf_msgs     0.000054                       # Average number of messages in buffer (Unspecified)
system.caches.network.int_link_buffers49.m_stall_time  2999.581762                       # Average number of cycles messages are stalled in this MB (Unspecified)
system.caches.network.int_link_buffers50.m_buf_msgs     0.000057                       # Average number of messages in buffer (Unspecified)
system.caches.network.int_link_buffers50.m_stall_time  2999.998097                       # Average number of cycles messages are stalled in this MB (Unspecified)
system.caches.network.int_link_buffers9.m_buf_msgs     0.000111                       # Average number of messages in buffer (Unspecified)
system.caches.network.int_link_buffers9.m_stall_time  2999.999893                       # Average number of cycles messages are stalled in this MB (Unspecified)
system.caches.network.power_state.pwrStateResidencyTicks::UNDEFINED 111926719000                       # Cumulative time (in ticks) in various power states (Tick)
system.caches.network.routers0.percent_links_utilized     0.007670                       (Unspecified)
system.caches.network.routers0.msg_count.Control::0        11228                       (Unspecified)
system.caches.network.routers0.msg_count.Control::1         5993                       (Unspecified)
system.caches.network.routers0.msg_bytes.Control::0        89824                       (Unspecified)
system.caches.network.routers0.msg_bytes.Control::1        47944                       (Unspecified)
system.caches.network.routers0.msg_count.Data::0         1195                       (Unspecified)
system.caches.network.routers0.msg_count.Data::2         6430                       (Unspecified)
system.caches.network.routers0.msg_bytes.Data::0        86040                       (Unspecified)
system.caches.network.routers0.msg_bytes.Data::2       462960                       (Unspecified)
system.caches.network.routers0.port_buffers1.m_buf_msgs     0.000054                       # Average number of messages in buffer (Unspecified)
system.caches.network.routers0.port_buffers1.m_stall_time  3999.442314                       # Average number of cycles messages are stalled in this MB (Unspecified)
system.caches.network.routers0.port_buffers12.m_buf_msgs     0.000111                       # Average number of messages in buffer (Unspecified)
system.caches.network.routers0.port_buffers12.m_stall_time  1999.999946                       # Average number of cycles messages are stalled in this MB (Unspecified)
system.caches.network.routers0.port_buffers2.m_buf_msgs     0.000057                       # Average number of messages in buffer (Unspecified)
system.caches.network.routers0.port_buffers2.m_stall_time  3999.997427                       # Average number of cycles messages are stalled in this MB (Unspecified)
system.caches.network.routers0.power_state.pwrStateResidencyTicks::UNDEFINED 111926719000                       # Cumulative time (in ticks) in various power states (Tick)
system.caches.network.routers0.throttle00.link_utilization     0.028529                       (Unspecified)
system.caches.network.routers0.throttle00.msg_count.Control::1         5993                       (Unspecified)
system.caches.network.routers0.throttle00.msg_bytes.Control::1        47944                       (Unspecified)
system.caches.network.routers0.throttle00.msg_count.Data::2         6430                       (Unspecified)
system.caches.network.routers0.throttle00.msg_bytes.Data::2       462960                       (Unspecified)
system.caches.network.routers0.throttle01.link_utilization            0                       (Unspecified)
system.caches.network.routers0.throttle02.link_utilization            0                       (Unspecified)
system.caches.network.routers0.throttle03.link_utilization            0                       (Unspecified)
system.caches.network.routers0.throttle04.link_utilization     0.009820                       (Unspecified)
system.caches.network.routers0.throttle04.msg_count.Control::0        11228                       (Unspecified)
system.caches.network.routers0.throttle04.msg_bytes.Control::0        89824                       (Unspecified)
system.caches.network.routers0.throttle04.msg_count.Data::0         1195                       (Unspecified)
system.caches.network.routers0.throttle04.msg_bytes.Data::0        86040                       (Unspecified)
system.caches.network.routers1.percent_links_utilized            0                       (Unspecified)
system.caches.network.routers1.power_state.pwrStateResidencyTicks::UNDEFINED 111926719000                       # Cumulative time (in ticks) in various power states (Tick)
system.caches.network.routers1.throttle00.link_utilization            0                       (Unspecified)
system.caches.network.routers1.throttle01.link_utilization            0                       (Unspecified)
system.caches.network.routers1.throttle02.link_utilization            0                       (Unspecified)
system.caches.network.routers1.throttle03.link_utilization            0                       (Unspecified)
system.caches.network.routers1.throttle04.link_utilization            0                       (Unspecified)
system.caches.network.routers2.percent_links_utilized            0                       (Unspecified)
system.caches.network.routers2.power_state.pwrStateResidencyTicks::UNDEFINED 111926719000                       # Cumulative time (in ticks) in various power states (Tick)
system.caches.network.routers2.throttle00.link_utilization            0                       (Unspecified)
system.caches.network.routers2.throttle01.link_utilization            0                       (Unspecified)
system.caches.network.routers2.throttle02.link_utilization            0                       (Unspecified)
system.caches.network.routers2.throttle03.link_utilization            0                       (Unspecified)
system.caches.network.routers2.throttle04.link_utilization            0                       (Unspecified)
system.caches.network.routers3.percent_links_utilized            0                       (Unspecified)
system.caches.network.routers3.power_state.pwrStateResidencyTicks::UNDEFINED 111926719000                       # Cumulative time (in ticks) in various power states (Tick)
system.caches.network.routers3.throttle00.link_utilization            0                       (Unspecified)
system.caches.network.routers3.throttle01.link_utilization            0                       (Unspecified)
system.caches.network.routers3.throttle02.link_utilization            0                       (Unspecified)
system.caches.network.routers3.throttle03.link_utilization            0                       (Unspecified)
system.caches.network.routers3.throttle04.link_utilization            0                       (Unspecified)
system.caches.network.routers4.percent_links_utilized     0.007670                       (Unspecified)
system.caches.network.routers4.msg_count.Control::0        11228                       (Unspecified)
system.caches.network.routers4.msg_count.Control::1         5993                       (Unspecified)
system.caches.network.routers4.msg_bytes.Control::0        89824                       (Unspecified)
system.caches.network.routers4.msg_bytes.Control::1        47944                       (Unspecified)
system.caches.network.routers4.msg_count.Data::0         1195                       (Unspecified)
system.caches.network.routers4.msg_count.Data::2         6430                       (Unspecified)
system.caches.network.routers4.msg_bytes.Data::0        86040                       (Unspecified)
system.caches.network.routers4.msg_bytes.Data::2       462960                       (Unspecified)
system.caches.network.routers4.port_buffers0.m_buf_msgs     0.000111                       # Average number of messages in buffer (Unspecified)
system.caches.network.routers4.port_buffers0.m_stall_time  3999.999821                       # Average number of cycles messages are stalled in this MB (Unspecified)
system.caches.network.routers4.port_buffers4.m_buf_msgs     0.000054                       # Average number of messages in buffer (Unspecified)
system.caches.network.routers4.port_buffers4.m_stall_time  1999.721193                       # Average number of cycles messages are stalled in this MB (Unspecified)
system.caches.network.routers4.port_buffers5.m_buf_msgs     0.000057                       # Average number of messages in buffer (Unspecified)
system.caches.network.routers4.port_buffers5.m_stall_time  1999.998749                       # Average number of cycles messages are stalled in this MB (Unspecified)
system.caches.network.routers4.power_state.pwrStateResidencyTicks::UNDEFINED 111926719000                       # Cumulative time (in ticks) in various power states (Tick)
system.caches.network.routers4.throttle00.link_utilization     0.009820                       (Unspecified)
system.caches.network.routers4.throttle00.msg_count.Control::0        11228                       (Unspecified)
system.caches.network.routers4.throttle00.msg_bytes.Control::0        89824                       (Unspecified)
system.caches.network.routers4.throttle00.msg_count.Data::0         1195                       (Unspecified)
system.caches.network.routers4.throttle00.msg_bytes.Data::0        86040                       (Unspecified)
system.caches.network.routers4.throttle01.link_utilization     0.028529                       (Unspecified)
system.caches.network.routers4.throttle01.msg_count.Control::1         5993                       (Unspecified)
system.caches.network.routers4.throttle01.msg_bytes.Control::1        47944                       (Unspecified)
system.caches.network.routers4.throttle01.msg_count.Data::2         6430                       (Unspecified)
system.caches.network.routers4.throttle01.msg_bytes.Data::2       462960                       (Unspecified)
system.caches.network.routers4.throttle02.link_utilization            0                       (Unspecified)
system.caches.network.routers4.throttle03.link_utilization            0                       (Unspecified)
system.caches.network.routers4.throttle04.link_utilization            0                       (Unspecified)
system.caches.power_state.pwrStateResidencyTicks::UNDEFINED 111926719000                       # Cumulative time (in ticks) in various power states (Tick)
system.caches.sequencers0.power_state.pwrStateResidencyTicks::UNDEFINED 111926719000                       # Cumulative time (in ticks) in various power states (Tick)
system.caches.sequencers1.power_state.pwrStateResidencyTicks::UNDEFINED 111926719000                       # Cumulative time (in ticks) in various power states (Tick)
system.caches.sequencers2.power_state.pwrStateResidencyTicks::UNDEFINED 111926719000                       # Cumulative time (in ticks) in various power states (Tick)
system.caches.sequencers3.power_state.pwrStateResidencyTicks::UNDEFINED 111926719000                       # Cumulative time (in ticks) in various power states (Tick)
system.caches.sys_port_proxy.power_state.pwrStateResidencyTicks::UNDEFINED 111926719000                       # Cumulative time (in ticks) in various power states (Tick)
system.clk_domain.clock                          1000                       # Clock period in ticks (Tick)
system.clk_domain.voltage_domain.voltage            1                       # Voltage in Volts (Volt)
system.cpu0.numCycles                       111926719                       # Number of cpu cycles simulated (Cycle)
system.cpu0.numWorkItemsStarted                     0                       # Number of work items this cpu started (Count)
system.cpu0.numWorkItemsCompleted                   0                       # Number of work items this cpu completed (Count)
system.cpu0.exec_context.thread_0.numInsts     33439356                       # Number of instructions committed (Count)
system.cpu0.exec_context.thread_0.numOps     53915929                       # Number of ops (including micro ops) committed (Count)
system.cpu0.exec_context.thread_0.numIntAluAccesses     53713354                       # Number of integer alu accesses (Count)
system.cpu0.exec_context.thread_0.numFpAluAccesses       231489                       # Number of float alu accesses (Count)
system.cpu0.exec_context.thread_0.numVecAluAccesses            0                       # Number of vector alu accesses (Count)
system.cpu0.exec_context.thread_0.numCallsReturns      2092230                       # Number of times a function call or return occured (Count)
system.cpu0.exec_context.thread_0.numCondCtrlInsts       892851                       # Number of instructions that are conditional controls (Count)
system.cpu0.exec_context.thread_0.numIntInsts     53713354                       # Number of integer instructions (Count)
system.cpu0.exec_context.thread_0.numFpInsts       231489                       # Number of float instructions (Count)
system.cpu0.exec_context.thread_0.numVecInsts            0                       # Number of vector instructions (Count)
system.cpu0.exec_context.thread_0.numIntRegReads    124818043                       # Number of times the integer registers were read (Count)
system.cpu0.exec_context.thread_0.numIntRegWrites     45979675                       # Number of times the integer registers were written (Count)
system.cpu0.exec_context.thread_0.numFpRegReads       382061                       # Number of times the floating registers were read (Count)
system.cpu0.exec_context.thread_0.numFpRegWrites       196938                       # Number of times the floating registers were written (Count)
system.cpu0.exec_context.thread_0.numVecRegReads            0                       # Number of times the vector registers were read (Count)
system.cpu0.exec_context.thread_0.numVecRegWrites            0                       # Number of times the vector registers were written (Count)
system.cpu0.exec_context.thread_0.numVecPredRegReads            0                       # Number of times the predicate registers were read (Count)
system.cpu0.exec_context.thread_0.numVecPredRegWrites            0                       # Number of times the predicate registers were written (Count)
system.cpu0.exec_context.thread_0.numCCRegReads      8551803                       # Number of times the CC registers were read (Count)
system.cpu0.exec_context.thread_0.numCCRegWrites     19234429                       # Number of times the CC registers were written (Count)
system.cpu0.exec_context.thread_0.numMemRefs     14183535                       # Number of memory refs (Count)
system.cpu0.exec_context.thread_0.numLoadInsts      9629091                       # Number of load instructions (Count)
system.cpu0.exec_context.thread_0.numStoreInsts      4554444                       # Number of store instructions (Count)
system.cpu0.exec_context.thread_0.numIdleCycles     0.001000                       # Number of idle cycles (Cycle)
system.cpu0.exec_context.thread_0.numBusyCycles 111926718.999000                       # Number of busy cycles (Cycle)
system.cpu0.exec_context.thread_0.notIdleFraction     1.000000                       # Percentage of non-idle cycles (Ratio)
system.cpu0.exec_context.thread_0.idleFraction     0.000000                       # Percentage of idle cycles (Ratio)
system.cpu0.exec_context.thread_0.numBranches      3159403                       # Number of branches fetched (Count)
system.cpu0.exec_context.thread_0.statExecutedInstType::No_OpClass        22384      0.04%      0.04% # Class of executed instruction. (Count)
system.cpu0.exec_context.thread_0.statExecutedInstType::IntAlu     39543521     73.34%     73.38% # Class of executed instruction. (Count)
system.cpu0.exec_context.thread_0.statExecutedInstType::IntMult        10734      0.02%     73.40% # Class of executed instruction. (Count)
system.cpu0.exec_context.thread_0.statExecutedInstType::IntDiv         1390      0.00%     73.41% # Class of executed instruction. (Count)
system.cpu0.exec_context.thread_0.statExecutedInstType::FloatAdd        10442      0.02%     73.43% # Class of executed instruction. (Count)
system.cpu0.exec_context.thread_0.statExecutedInstType::FloatCmp            0      0.00%     73.43% # Class of executed instruction. (Count)
system.cpu0.exec_context.thread_0.statExecutedInstType::FloatCvt           32      0.00%     73.43% # Class of executed instruction. (Count)
system.cpu0.exec_context.thread_0.statExecutedInstType::FloatMult            0      0.00%     73.43% # Class of executed instruction. (Count)
system.cpu0.exec_context.thread_0.statExecutedInstType::FloatMultAcc            0      0.00%     73.43% # Class of executed instruction. (Count)
system.cpu0.exec_context.thread_0.statExecutedInstType::FloatDiv            0      0.00%     73.43% # Class of executed instruction. (Count)
system.cpu0.exec_context.thread_0.statExecutedInstType::FloatMisc            0      0.00%     73.43% # Class of executed instruction. (Count)
system.cpu0.exec_context.thread_0.statExecutedInstType::FloatSqrt            0      0.00%     73.43% # Class of executed instruction. (Count)
system.cpu0.exec_context.thread_0.statExecutedInstType::SimdAdd          968      0.00%     73.43% # Class of executed instruction. (Count)
system.cpu0.exec_context.thread_0.statExecutedInstType::SimdAddAcc            0      0.00%     73.43% # Class of executed instruction. (Count)
system.cpu0.exec_context.thread_0.statExecutedInstType::SimdAlu        33804      0.06%     73.49% # Class of executed instruction. (Count)
system.cpu0.exec_context.thread_0.statExecutedInstType::SimdCmp            0      0.00%     73.49% # Class of executed instruction. (Count)
system.cpu0.exec_context.thread_0.statExecutedInstType::SimdCvt        34122      0.06%     73.55% # Class of executed instruction. (Count)
system.cpu0.exec_context.thread_0.statExecutedInstType::SimdMisc        74665      0.14%     73.69% # Class of executed instruction. (Count)
system.cpu0.exec_context.thread_0.statExecutedInstType::SimdMult            0      0.00%     73.69% # Class of executed instruction. (Count)
system.cpu0.exec_context.thread_0.statExecutedInstType::SimdMultAcc            0      0.00%     73.69% # Class of executed instruction. (Count)
system.cpu0.exec_context.thread_0.statExecutedInstType::SimdShift          442      0.00%     73.69% # Class of executed instruction. (Count)
system.cpu0.exec_context.thread_0.statExecutedInstType::SimdShiftAcc            0      0.00%     73.69% # Class of executed instruction. (Count)
system.cpu0.exec_context.thread_0.statExecutedInstType::SimdDiv            0      0.00%     73.69% # Class of executed instruction. (Count)
system.cpu0.exec_context.thread_0.statExecutedInstType::SimdSqrt            0      0.00%     73.69% # Class of executed instruction. (Count)
system.cpu0.exec_context.thread_0.statExecutedInstType::SimdFloatAdd            0      0.00%     73.69% # Class of executed instruction. (Count)
system.cpu0.exec_context.thread_0.statExecutedInstType::SimdFloatAlu            0      0.00%     73.69% # Class of executed instruction. (Count)
system.cpu0.exec_context.thread_0.statExecutedInstType::SimdFloatCmp            0      0.00%     73.69% # Class of executed instruction. (Count)
system.cpu0.exec_context.thread_0.statExecutedInstType::SimdFloatCvt            0      0.00%     73.69% # Class of executed instruction. (Count)
system.cpu0.exec_context.thread_0.statExecutedInstType::SimdFloatDiv            0      0.00%     73.69% # Class of executed instruction. (Count)
system.cpu0.exec_context.thread_0.statExecutedInstType::SimdFloatMisc            0      0.00%     73.69% # Class of executed instruction. (Count)
system.cpu0.exec_context.thread_0.statExecutedInstType::SimdFloatMult            0      0.00%     73.69% # Class of executed instruction. (Count)
system.cpu0.exec_context.thread_0.statExecutedInstType::SimdFloatMultAcc            0      0.00%     73.69% # Class of executed instruction. (Count)
system.cpu0.exec_context.thread_0.statExecutedInstType::SimdFloatSqrt            0      0.00%     73.69% # Class of executed instruction. (Count)
system.cpu0.exec_context.thread_0.statExecutedInstType::SimdReduceAdd            0      0.00%     73.69% # Class of executed instruction. (Count)
system.cpu0.exec_context.thread_0.statExecutedInstType::SimdReduceAlu            0      0.00%     73.69% # Class of executed instruction. (Count)
system.cpu0.exec_context.thread_0.statExecutedInstType::SimdReduceCmp            0      0.00%     73.69% # Class of executed instruction. (Count)
system.cpu0.exec_context.thread_0.statExecutedInstType::SimdFloatReduceAdd            0      0.00%     73.69% # Class of executed instruction. (Count)
system.cpu0.exec_context.thread_0.statExecutedInstType::SimdFloatReduceCmp            0      0.00%     73.69% # Class of executed instruction. (Count)
system.cpu0.exec_context.thread_0.statExecutedInstType::SimdAes            0      0.00%     73.69% # Class of executed instruction. (Count)
system.cpu0.exec_context.thread_0.statExecutedInstType::SimdAesMix            0      0.00%     73.69% # Class of executed instruction. (Count)
system.cpu0.exec_context.thread_0.statExecutedInstType::SimdSha1Hash            0      0.00%     73.69% # Class of executed instruction. (Count)
system.cpu0.exec_context.thread_0.statExecutedInstType::SimdSha1Hash2            0      0.00%     73.69% # Class of executed instruction. (Count)
system.cpu0.exec_context.thread_0.statExecutedInstType::SimdSha256Hash            0      0.00%     73.69% # Class of executed instruction. (Count)
system.cpu0.exec_context.thread_0.statExecutedInstType::SimdSha256Hash2            0      0.00%     73.69% # Class of executed instruction. (Count)
system.cpu0.exec_context.thread_0.statExecutedInstType::SimdShaSigma2            0      0.00%     73.69% # Class of executed instruction. (Count)
system.cpu0.exec_context.thread_0.statExecutedInstType::SimdShaSigma3            0      0.00%     73.69% # Class of executed instruction. (Count)
system.cpu0.exec_context.thread_0.statExecutedInstType::SimdPredAlu            0      0.00%     73.69% # Class of executed instruction. (Count)
system.cpu0.exec_context.thread_0.statExecutedInstType::MemRead      9594699     17.80%     91.49% # Class of executed instruction. (Count)
system.cpu0.exec_context.thread_0.statExecutedInstType::MemWrite      4536998      8.41%     99.90% # Class of executed instruction. (Count)
system.cpu0.exec_context.thread_0.statExecutedInstType::FloatMemRead        34392      0.06%     99.97% # Class of executed instruction. (Count)
system.cpu0.exec_context.thread_0.statExecutedInstType::FloatMemWrite        17446      0.03%    100.00% # Class of executed instruction. (Count)
system.cpu0.exec_context.thread_0.statExecutedInstType::IprAccess            0      0.00%    100.00% # Class of executed instruction. (Count)
system.cpu0.exec_context.thread_0.statExecutedInstType::InstPrefetch            0      0.00%    100.00% # Class of executed instruction. (Count)
system.cpu0.exec_context.thread_0.statExecutedInstType::total     53916039                       # Class of executed instruction. (Count)
system.cpu0.interrupts.clk_domain.clock         16000                       # Clock period in ticks (Tick)
system.cpu0.mmu.dtb.rdAccesses                9629103                       # TLB accesses on read requests (Count)
system.cpu0.mmu.dtb.wrAccesses                4554564                       # TLB accesses on write requests (Count)
system.cpu0.mmu.dtb.rdMisses                      159                       # TLB misses on read requests (Count)
system.cpu0.mmu.dtb.wrMisses                       32                       # TLB misses on write requests (Count)
system.cpu0.mmu.dtb.walker.power_state.pwrStateResidencyTicks::UNDEFINED 111926719000                       # Cumulative time (in ticks) in various power states (Tick)
system.cpu0.mmu.itb.rdAccesses                      0                       # TLB accesses on read requests (Count)
system.cpu0.mmu.itb.wrAccesses               41557524                       # TLB accesses on write requests (Count)
system.cpu0.mmu.itb.rdMisses                        0                       # TLB misses on read requests (Count)
system.cpu0.mmu.itb.wrMisses                      189                       # TLB misses on write requests (Count)
system.cpu0.mmu.itb.walker.power_state.pwrStateResidencyTicks::UNDEFINED 111926719000                       # Cumulative time (in ticks) in various power states (Tick)
system.cpu0.power_state.pwrStateResidencyTicks::ON 111926719000                       # Cumulative time (in ticks) in various power states (Tick)
system.cpu0.thread_0.numInsts                       0                       # Number of Instructions committed (Count)
system.cpu0.thread_0.numOps                         0                       # Number of Ops committed (Count)
system.cpu0.thread_0.numMemRefs                     0                       # Number of Memory References (Count)
system.cpu0.workload.numSyscalls                   47                       # Number of system calls (Count)
system.cpu1.numCycles                               0                       # Number of cpu cycles simulated (Cycle)
system.cpu1.numWorkItemsStarted                     0                       # Number of work items this cpu started (Count)
system.cpu1.numWorkItemsCompleted                   0                       # Number of work items this cpu completed (Count)
system.cpu1.exec_context.thread_0.numInsts            0                       # Number of instructions committed (Count)
system.cpu1.exec_context.thread_0.numOps            0                       # Number of ops (including micro ops) committed (Count)
system.cpu1.exec_context.thread_0.numIntAluAccesses            0                       # Number of integer alu accesses (Count)
system.cpu1.exec_context.thread_0.numFpAluAccesses            0                       # Number of float alu accesses (Count)
system.cpu1.exec_context.thread_0.numVecAluAccesses            0                       # Number of vector alu accesses (Count)
system.cpu1.exec_context.thread_0.numCallsReturns            0                       # Number of times a function call or return occured (Count)
system.cpu1.exec_context.thread_0.numCondCtrlInsts            0                       # Number of instructions that are conditional controls (Count)
system.cpu1.exec_context.thread_0.numIntInsts            0                       # Number of integer instructions (Count)
system.cpu1.exec_context.thread_0.numFpInsts            0                       # Number of float instructions (Count)
system.cpu1.exec_context.thread_0.numVecInsts            0                       # Number of vector instructions (Count)
system.cpu1.exec_context.thread_0.numIntRegReads            0                       # Number of times the integer registers were read (Count)
system.cpu1.exec_context.thread_0.numIntRegWrites            0                       # Number of times the integer registers were written (Count)
system.cpu1.exec_context.thread_0.numFpRegReads            0                       # Number of times the floating registers were read (Count)
system.cpu1.exec_context.thread_0.numFpRegWrites            0                       # Number of times the floating registers were written (Count)
system.cpu1.exec_context.thread_0.numVecRegReads            0                       # Number of times the vector registers were read (Count)
system.cpu1.exec_context.thread_0.numVecRegWrites            0                       # Number of times the vector registers were written (Count)
system.cpu1.exec_context.thread_0.numVecPredRegReads            0                       # Number of times the predicate registers were read (Count)
system.cpu1.exec_context.thread_0.numVecPredRegWrites            0                       # Number of times the predicate registers were written (Count)
system.cpu1.exec_context.thread_0.numMemRefs            0                       # Number of memory refs (Count)
system.cpu1.exec_context.thread_0.numLoadInsts            0                       # Number of load instructions (Count)
system.cpu1.exec_context.thread_0.numStoreInsts            0                       # Number of store instructions (Count)
system.cpu1.exec_context.thread_0.numIdleCycles            0                       # Number of idle cycles (Cycle)
system.cpu1.exec_context.thread_0.numBusyCycles            0                       # Number of busy cycles (Cycle)
system.cpu1.exec_context.thread_0.notIdleFraction            0                       # Percentage of non-idle cycles (Ratio)
system.cpu1.exec_context.thread_0.idleFraction            1                       # Percentage of idle cycles (Ratio)
system.cpu1.exec_context.thread_0.statExecutedInstType::No_OpClass            0                       # Class of executed instruction. (Count)
system.cpu1.exec_context.thread_0.statExecutedInstType::IntAlu            0                       # Class of executed instruction. (Count)
system.cpu1.exec_context.thread_0.statExecutedInstType::IntMult            0                       # Class of executed instruction. (Count)
system.cpu1.exec_context.thread_0.statExecutedInstType::IntDiv            0                       # Class of executed instruction. (Count)
system.cpu1.exec_context.thread_0.statExecutedInstType::FloatAdd            0                       # Class of executed instruction. (Count)
system.cpu1.exec_context.thread_0.statExecutedInstType::FloatCmp            0                       # Class of executed instruction. (Count)
system.cpu1.exec_context.thread_0.statExecutedInstType::FloatCvt            0                       # Class of executed instruction. (Count)
system.cpu1.exec_context.thread_0.statExecutedInstType::FloatMult            0                       # Class of executed instruction. (Count)
system.cpu1.exec_context.thread_0.statExecutedInstType::FloatMultAcc            0                       # Class of executed instruction. (Count)
system.cpu1.exec_context.thread_0.statExecutedInstType::FloatDiv            0                       # Class of executed instruction. (Count)
system.cpu1.exec_context.thread_0.statExecutedInstType::FloatMisc            0                       # Class of executed instruction. (Count)
system.cpu1.exec_context.thread_0.statExecutedInstType::FloatSqrt            0                       # Class of executed instruction. (Count)
system.cpu1.exec_context.thread_0.statExecutedInstType::SimdAdd            0                       # Class of executed instruction. (Count)
system.cpu1.exec_context.thread_0.statExecutedInstType::SimdAddAcc            0                       # Class of executed instruction. (Count)
system.cpu1.exec_context.thread_0.statExecutedInstType::SimdAlu            0                       # Class of executed instruction. (Count)
system.cpu1.exec_context.thread_0.statExecutedInstType::SimdCmp            0                       # Class of executed instruction. (Count)
system.cpu1.exec_context.thread_0.statExecutedInstType::SimdCvt            0                       # Class of executed instruction. (Count)
system.cpu1.exec_context.thread_0.statExecutedInstType::SimdMisc            0                       # Class of executed instruction. (Count)
system.cpu1.exec_context.thread_0.statExecutedInstType::SimdMult            0                       # Class of executed instruction. (Count)
system.cpu1.exec_context.thread_0.statExecutedInstType::SimdMultAcc            0                       # Class of executed instruction. (Count)
system.cpu1.exec_context.thread_0.statExecutedInstType::SimdShift            0                       # Class of executed instruction. (Count)
system.cpu1.exec_context.thread_0.statExecutedInstType::SimdShiftAcc            0                       # Class of executed instruction. (Count)
system.cpu1.exec_context.thread_0.statExecutedInstType::SimdDiv            0                       # Class of executed instruction. (Count)
system.cpu1.exec_context.thread_0.statExecutedInstType::SimdSqrt            0                       # Class of executed instruction. (Count)
system.cpu1.exec_context.thread_0.statExecutedInstType::SimdFloatAdd            0                       # Class of executed instruction. (Count)
system.cpu1.exec_context.thread_0.statExecutedInstType::SimdFloatAlu            0                       # Class of executed instruction. (Count)
system.cpu1.exec_context.thread_0.statExecutedInstType::SimdFloatCmp            0                       # Class of executed instruction. (Count)
system.cpu1.exec_context.thread_0.statExecutedInstType::SimdFloatCvt            0                       # Class of executed instruction. (Count)
system.cpu1.exec_context.thread_0.statExecutedInstType::SimdFloatDiv            0                       # Class of executed instruction. (Count)
system.cpu1.exec_context.thread_0.statExecutedInstType::SimdFloatMisc            0                       # Class of executed instruction. (Count)
system.cpu1.exec_context.thread_0.statExecutedInstType::SimdFloatMult            0                       # Class of executed instruction. (Count)
system.cpu1.exec_context.thread_0.statExecutedInstType::SimdFloatMultAcc            0                       # Class of executed instruction. (Count)
system.cpu1.exec_context.thread_0.statExecutedInstType::SimdFloatSqrt            0                       # Class of executed instruction. (Count)
system.cpu1.exec_context.thread_0.statExecutedInstType::SimdReduceAdd            0                       # Class of executed instruction. (Count)
system.cpu1.exec_context.thread_0.statExecutedInstType::SimdReduceAlu            0                       # Class of executed instruction. (Count)
system.cpu1.exec_context.thread_0.statExecutedInstType::SimdReduceCmp            0                       # Class of executed instruction. (Count)
system.cpu1.exec_context.thread_0.statExecutedInstType::SimdFloatReduceAdd            0                       # Class of executed instruction. (Count)
system.cpu1.exec_context.thread_0.statExecutedInstType::SimdFloatReduceCmp            0                       # Class of executed instruction. (Count)
system.cpu1.exec_context.thread_0.statExecutedInstType::SimdAes            0                       # Class of executed instruction. (Count)
system.cpu1.exec_context.thread_0.statExecutedInstType::SimdAesMix            0                       # Class of executed instruction. (Count)
system.cpu1.exec_context.thread_0.statExecutedInstType::SimdSha1Hash            0                       # Class of executed instruction. (Count)
system.cpu1.exec_context.thread_0.statExecutedInstType::SimdSha1Hash2            0                       # Class of executed instruction. (Count)
[...]
system.mem_ctrl.rdPerTurnAround::mean       86.486111                       # Reads before turning the bus around for writes (Count)
system.mem_ctrl.rdPerTurnAround::gmean      61.738489                       # Reads before turning the bus around for writes (Count)
system.mem_ctrl.rdPerTurnAround::stdev     128.447610                       # Reads before turning the bus around for writes (Count)
system.mem_ctrl.rdPerTurnAround::0-63              42     58.33%     58.33% # Reads before turning the bus around for writes (Count)
system.mem_ctrl.rdPerTurnAround::64-127            23     31.94%     90.28% # Reads before turning the bus around for writes (Count)
system.mem_ctrl.rdPerTurnAround::128-191            3      4.17%     94.44% # Reads before turning the bus around for writes (Count)
system.mem_ctrl.rdPerTurnAround::192-255            1      1.39%     95.83% # Reads before turning the bus around for writes (Count)
system.mem_ctrl.rdPerTurnAround::256-319            1      1.39%     97.22% # Reads before turning the bus around for writes (Count)
system.mem_ctrl.rdPerTurnAround::320-383            1      1.39%     98.61% # Reads before turning the bus around for writes (Count)
system.mem_ctrl.rdPerTurnAround::1024-1087            1      1.39%    100.00% # Reads before turning the bus around for writes (Count)
system.mem_ctrl.rdPerTurnAround::total             72                       # Reads before turning the bus around for writes (Count)
system.mem_ctrl.wrPerTurnAround::samples           72                       # Writes before turning the bus around for reads (Count)
system.mem_ctrl.wrPerTurnAround::mean       16.138889                       # Writes before turning the bus around for reads (Count)
system.mem_ctrl.wrPerTurnAround::gmean      16.131407                       # Writes before turning the bus around for reads (Count)
system.mem_ctrl.wrPerTurnAround::stdev       0.511985                       # Writes before turning the bus around for reads (Count)
system.mem_ctrl.wrPerTurnAround::16                67     93.06%     93.06% # Writes before turning the bus around for reads (Count)
system.mem_ctrl.wrPerTurnAround::18                 5      6.94%    100.00% # Writes before turning the bus around for reads (Count)
system.mem_ctrl.wrPerTurnAround::total             72                       # Writes before turning the bus around for reads (Count)
system.mem_ctrl.bytesReadWrQ                    11520                       # Total number of bytes read from write queue (Byte)
system.mem_ctrl.bytesReadSys                   411520                       # Total read bytes from the system interface side (Byte)
system.mem_ctrl.bytesWrittenSys                 76480                       # Total written bytes from the system interface side (Byte)
system.mem_ctrl.avgRdBWSys               3676691.35374191                       # Average system read bandwidth in Byte/s ((Byte/Second))
system.mem_ctrl.avgWrBWSys               683304.22515110                       # Average system write bandwidth in Byte/s ((Byte/Second))
system.mem_ctrl.totGap                   111926660000                       # Total gap between requests (Tick)
system.mem_ctrl.avgGap                    14678906.23                       # Average gap between requests ((Tick/Count))
system.mem_ctrl.requestorReadBytes::caches.controllers4       400000                       # Per-requestor bytes read from memory (Byte)
system.mem_ctrl.requestorWriteBytes::caches.controllers4        74368                       # Per-requestor bytes write to memory (Byte)
system.mem_ctrl.requestorReadRate::caches.controllers4 3573766.867945088539                       # Per-requestor bytes read from memory rate ((Byte/Second))
system.mem_ctrl.requestorWriteRate::caches.controllers4 664434.736088350881                       # Per-requestor bytes write to memory rate ((Byte/Second))
system.mem_ctrl.requestorReadAccesses::caches.controllers4         6430                       # Per-requestor read serviced memory accesses (Count)
system.mem_ctrl.requestorWriteAccesses::caches.controllers4         1195                       # Per-requestor write serviced memory accesses (Count)
system.mem_ctrl.requestorReadTotalLat::caches.controllers4    178842500                       # Per-requestor read total memory access latency (Tick)
system.mem_ctrl.requestorWriteTotalLat::caches.controllers4 2385885034750                       # Per-requestor write total memory access latency (Tick)
system.mem_ctrl.requestorReadAvgLat::caches.controllers4     27813.76                       # Per-requestor read average memory access latency ((Tick/Count))
system.mem_ctrl.requestorWriteAvgLat::caches.controllers4 1996556514.44                       # Per-requestor write average memory access latency ((Tick/Count))
system.mem_ctrl.dram.bytesRead::caches.controllers4       411520                       # Number of bytes read from this memory (Byte)
system.mem_ctrl.dram.bytesRead::total          411520                       # Number of bytes read from this memory (Byte)
system.mem_ctrl.dram.bytesWritten::caches.controllers4        76480                       # Number of bytes written to this memory (Byte)
system.mem_ctrl.dram.bytesWritten::total        76480                       # Number of bytes written to this memory (Byte)
system.mem_ctrl.dram.numReads::caches.controllers4         6430                       # Number of read requests responded to by this memory (Count)
system.mem_ctrl.dram.numReads::total             6430                       # Number of read requests responded to by this memory (Count)
system.mem_ctrl.dram.numWrites::caches.controllers4         1195                       # Number of write requests responded to by this memory (Count)
system.mem_ctrl.dram.numWrites::total            1195                       # Number of write requests responded to by this memory (Count)
system.mem_ctrl.dram.bwRead::caches.controllers4      3676691                       # Total read bandwidth from this memory ((Byte/Second))
system.mem_ctrl.dram.bwRead::total            3676691                       # Total read bandwidth from this memory ((Byte/Second))
system.mem_ctrl.dram.bwWrite::caches.controllers4       683304                       # Write bandwidth from this memory ((Byte/Second))
system.mem_ctrl.dram.bwWrite::total            683304                       # Write bandwidth from this memory ((Byte/Second))
system.mem_ctrl.dram.bwTotal::caches.controllers4      4359996                       # Total bandwidth to/from this memory ((Byte/Second))
system.mem_ctrl.dram.bwTotal::total           4359996                       # Total bandwidth to/from this memory ((Byte/Second))
system.mem_ctrl.dram.readBursts                  6250                       # Number of DRAM read bursts (Count)
system.mem_ctrl.dram.writeBursts                 1162                       # Number of DRAM write bursts (Count)
system.mem_ctrl.dram.perBankRdBursts::0           612                       # Per bank write bursts (Count)
system.mem_ctrl.dram.perBankRdBursts::1           481                       # Per bank write bursts (Count)
system.mem_ctrl.dram.perBankRdBursts::2           359                       # Per bank write bursts (Count)
system.mem_ctrl.dram.perBankRdBursts::3           334                       # Per bank write bursts (Count)
system.mem_ctrl.dram.perBankRdBursts::4           295                       # Per bank write bursts (Count)
system.mem_ctrl.dram.perBankRdBursts::5           187                       # Per bank write bursts (Count)
system.mem_ctrl.dram.perBankRdBursts::6           196                       # Per bank write bursts (Count)
system.mem_ctrl.dram.perBankRdBursts::7           651                       # Per bank write bursts (Count)
system.mem_ctrl.dram.perBankRdBursts::8           721                       # Per bank write bursts (Count)
system.mem_ctrl.dram.perBankRdBursts::9           271                       # Per bank write bursts (Count)
system.mem_ctrl.dram.perBankRdBursts::10          272                       # Per bank write bursts (Count)
system.mem_ctrl.dram.perBankRdBursts::11          230                       # Per bank write bursts (Count)
system.mem_ctrl.dram.perBankRdBursts::12          261                       # Per bank write bursts (Count)
system.mem_ctrl.dram.perBankRdBursts::13          215                       # Per bank write bursts (Count)
system.mem_ctrl.dram.perBankRdBursts::14          648                       # Per bank write bursts (Count)
system.mem_ctrl.dram.perBankRdBursts::15          517                       # Per bank write bursts (Count)
system.mem_ctrl.dram.perBankWrBursts::0             0                       # Per bank write bursts (Count)
system.mem_ctrl.dram.perBankWrBursts::1            99                       # Per bank write bursts (Count)
system.mem_ctrl.dram.perBankWrBursts::2            42                       # Per bank write bursts (Count)
system.mem_ctrl.dram.perBankWrBursts::3            63                       # Per bank write bursts (Count)
system.mem_ctrl.dram.perBankWrBursts::4             0                       # Per bank write bursts (Count)
system.mem_ctrl.dram.perBankWrBursts::5            53                       # Per bank write bursts (Count)
system.mem_ctrl.dram.perBankWrBursts::6            12                       # Per bank write bursts (Count)
system.mem_ctrl.dram.perBankWrBursts::7           198                       # Per bank write bursts (Count)
system.mem_ctrl.dram.perBankWrBursts::8           232                       # Per bank write bursts (Count)
system.mem_ctrl.dram.perBankWrBursts::9             5                       # Per bank write bursts (Count)
system.mem_ctrl.dram.perBankWrBursts::10            0                       # Per bank write bursts (Count)
system.mem_ctrl.dram.perBankWrBursts::11            0                       # Per bank write bursts (Count)
system.mem_ctrl.dram.perBankWrBursts::12          118                       # Per bank write bursts (Count)
system.mem_ctrl.dram.perBankWrBursts::13           37                       # Per bank write bursts (Count)
system.mem_ctrl.dram.perBankWrBursts::14          240                       # Per bank write bursts (Count)
system.mem_ctrl.dram.perBankWrBursts::15           63                       # Per bank write bursts (Count)
system.mem_ctrl.dram.totQLat                 61655000                       # Total ticks spent queuing (Tick)
system.mem_ctrl.dram.totBusLat               31250000                       # Total ticks spent in databus transfers (Tick)
system.mem_ctrl.dram.totMemAccLat           178842500                       # Total ticks spent from burst creation until serviced by the DRAM (Tick)
system.mem_ctrl.dram.avgQLat                  9864.80                       # Average queueing delay per DRAM burst ((Tick/Count))
system.mem_ctrl.dram.avgBusLat                5000.00                       # Average bus latency per DRAM burst ((Tick/Count))
system.mem_ctrl.dram.avgMemAccLat            28614.80                       # Average memory access latency per DRAM burst ((Tick/Count))
system.mem_ctrl.dram.readRowHits                 4387                       # Number of row buffer hits during reads (Count)
system.mem_ctrl.dram.writeRowHits                1018                       # Number of row buffer hits during writes (Count)
system.mem_ctrl.dram.readRowHitRate             70.19                       # Row buffer hit rate for reads (Ratio)
system.mem_ctrl.dram.writeRowHitRate            87.61                       # Row buffer hit rate for writes (Ratio)
system.mem_ctrl.dram.bytesPerActivate::samples         1995                       # Bytes accessed per row activation (Byte)
system.mem_ctrl.dram.bytesPerActivate::mean   236.238596                       # Bytes accessed per row activation (Byte)
system.mem_ctrl.dram.bytesPerActivate::gmean   143.664678                       # Bytes accessed per row activation (Byte)
system.mem_ctrl.dram.bytesPerActivate::stdev   275.337071                       # Bytes accessed per row activation (Byte)
system.mem_ctrl.dram.bytesPerActivate::0-127          914     45.81%     45.81% # Bytes accessed per row activation (Byte)
system.mem_ctrl.dram.bytesPerActivate::128-255          510     25.56%     71.38% # Bytes accessed per row activation (Byte)
system.mem_ctrl.dram.bytesPerActivate::256-383          170      8.52%     79.90% # Bytes accessed per row activation (Byte)
system.mem_ctrl.dram.bytesPerActivate::384-511          100      5.01%     84.91% # Bytes accessed per row activation (Byte)
system.mem_ctrl.dram.bytesPerActivate::512-639           64      3.21%     88.12% # Bytes accessed per row activation (Byte)
system.mem_ctrl.dram.bytesPerActivate::640-767           54      2.71%     90.83% # Bytes accessed per row activation (Byte)
system.mem_ctrl.dram.bytesPerActivate::768-895           35      1.75%     92.58% # Bytes accessed per row activation (Byte)
system.mem_ctrl.dram.bytesPerActivate::896-1023           26      1.30%     93.88% # Bytes accessed per row activation (Byte)
system.mem_ctrl.dram.bytesPerActivate::1024-1151          122      6.12%    100.00% # Bytes accessed per row activation (Byte)
system.mem_ctrl.dram.bytesPerActivate::total         1995                       # Bytes accessed per row activation (Byte)
system.mem_ctrl.dram.bytesRead                 400000                       # Total number of bytes read from DRAM (Byte)
system.mem_ctrl.dram.bytesWritten               74368                       # Total number of bytes written to DRAM (Byte)
system.mem_ctrl.dram.avgRdBW                 3.573767                       # Average DRAM read bandwidth in MiBytes/s ((Byte/Second))
system.mem_ctrl.dram.avgWrBW                 0.664435                       # Average DRAM write bandwidth in MiBytes/s ((Byte/Second))
system.mem_ctrl.dram.peakBW                  12800.00                       # Theoretical peak bandwidth in MiByte/s ((Byte/Second))
system.mem_ctrl.dram.busUtil                     0.03                       # Data bus utilization in percentage (Ratio)
system.mem_ctrl.dram.busUtilRead                 0.03                       # Data bus utilization in percentage for reads (Ratio)
system.mem_ctrl.dram.busUtilWrite                0.01                       # Data bus utilization in percentage for writes (Ratio)
system.mem_ctrl.dram.pageHitRate                72.92                       # Row buffer hit rate, read and write combined (Ratio)
system.mem_ctrl.dram.power_state.pwrStateResidencyTicks::UNDEFINED 111926719000                       # Cumulative time (in ticks) in various power states (Tick)
system.mem_ctrl.dram.rank0.actEnergy          6183240                       # Energy for activate commands per rank (pJ) (Joule)
system.mem_ctrl.dram.rank0.preEnergy          3263700                       # Energy for precharge commands per rank (pJ) (Joule)
system.mem_ctrl.dram.rank0.readEnergy        22241100                       # Energy for read commands per rank (pJ) (Joule)
system.mem_ctrl.dram.rank0.writeEnergy        2437740                       # Energy for write commands per rank (pJ) (Joule)
system.mem_ctrl.dram.rank0.refreshEnergy 8834835360.000002                       # Energy for refresh commands per rank (pJ) (Joule)
system.mem_ctrl.dram.rank0.actBackEnergy   2290453230                       # Energy for active background per rank (pJ) (Joule)
system.mem_ctrl.dram.rank0.preBackEnergy  41051057760                       # Energy for precharge background per rank (pJ) (Joule)
system.mem_ctrl.dram.rank0.actPowerDownEnergy            0                       # Energy for active power-down per rank (pJ) (Joule)
system.mem_ctrl.dram.rank0.prePowerDownEnergy            0                       # Energy for precharge power-down per rank (pJ) (Joule)
system.mem_ctrl.dram.rank0.selfRefreshEnergy            0                       # Energy for self refresh per rank (pJ) (Joule)
system.mem_ctrl.dram.rank0.totalEnergy    52210472130                       # Total energy per rank (pJ) (Joule)
system.mem_ctrl.dram.rank0.averagePower    466.470139                       # Core power per rank (mW) (Watt)
system.mem_ctrl.dram.rank0.totalIdleTime            0                       # Total Idle time Per DRAM Rank (Tick)
system.mem_ctrl.dram.rank0.pwrStateTime::IDLE 106701573250                       # Time in different power states (Tick)
system.mem_ctrl.dram.rank0.pwrStateTime::REF   3737240000                       # Time in different power states (Tick)
system.mem_ctrl.dram.rank0.pwrStateTime::SREF            0                       # Time in different power states (Tick)
system.mem_ctrl.dram.rank0.pwrStateTime::PRE_PDN            0                       # Time in different power states (Tick)
system.mem_ctrl.dram.rank0.pwrStateTime::ACT   1487905750                       # Time in different power states (Tick)
system.mem_ctrl.dram.rank0.pwrStateTime::ACT_PDN            0                       # Time in different power states (Tick)
system.mem_ctrl.dram.rank1.actEnergy          8146740                       # Energy for activate commands per rank (pJ) (Joule)
system.mem_ctrl.dram.rank1.preEnergy          4307325                       # Energy for precharge commands per rank (pJ) (Joule)
system.mem_ctrl.dram.rank1.readEnergy        22383900                       # Energy for read commands per rank (pJ) (Joule)
system.mem_ctrl.dram.rank1.writeEnergy        3627900                       # Energy for write commands per rank (pJ) (Joule)
system.mem_ctrl.dram.rank1.refreshEnergy 8834835360.000002                       # Energy for refresh commands per rank (pJ) (Joule)
system.mem_ctrl.dram.rank1.actBackEnergy   2566040250                       # Energy for active background per rank (pJ) (Joule)
system.mem_ctrl.dram.rank1.preBackEnergy  40818984480                       # Energy for precharge background per rank (pJ) (Joule)
system.mem_ctrl.dram.rank1.actPowerDownEnergy            0                       # Energy for active power-down per rank (pJ) (Joule)
system.mem_ctrl.dram.rank1.prePowerDownEnergy            0                       # Energy for precharge power-down per rank (pJ) (Joule)
system.mem_ctrl.dram.rank1.selfRefreshEnergy            0                       # Energy for self refresh per rank (pJ) (Joule)
system.mem_ctrl.dram.rank1.totalEnergy    52258325955                       # Total energy per rank (pJ) (Joule)
system.mem_ctrl.dram.rank1.averagePower    466.897685                       # Core power per rank (mW) (Watt)
system.mem_ctrl.dram.rank1.totalIdleTime            0                       # Total Idle time Per DRAM Rank (Tick)
system.mem_ctrl.dram.rank1.pwrStateTime::IDLE 106095395750                       # Time in different power states (Tick)
system.mem_ctrl.dram.rank1.pwrStateTime::REF   3737240000                       # Time in different power states (Tick)
system.mem_ctrl.dram.rank1.pwrStateTime::SREF            0                       # Time in different power states (Tick)
system.mem_ctrl.dram.rank1.pwrStateTime::PRE_PDN            0                       # Time in different power states (Tick)
system.mem_ctrl.dram.rank1.pwrStateTime::ACT   2094083250                       # Time in different power states (Tick)
system.mem_ctrl.dram.rank1.pwrStateTime::ACT_PDN            0                       # Time in different power states (Tick)
system.mem_ctrl.power_state.pwrStateResidencyTicks::UNDEFINED 111926719000                       # Cumulative time (in ticks) in various power states (Tick)
system.workload.inst.arm                            0                       # number of arm instructions executed (Count)
system.workload.inst.quiesce                        0                       # number of quiesce instructions executed (Count)

---------- End Simulation Statistics   ----------
