
---------- Begin Simulation Statistics ----------
simSeconds                                   0.004305                       # Number of seconds simulated (Second)
simTicks                                   4304956000                       # Number of ticks simulated (Tick)
finalTick                                  4304956000                       # Number of ticks from beginning of simulation (restored from checkpoints and never reset) (Tick)
simFreq                                  1000000000000                       # The number of ticks per simulated second ((Tick/Second))
hostSeconds                                      5.73                       # Real time elapsed on the host (Second)
hostTickRate                                751661031                       # The number of ticks simulated per host second (ticks/s) ((Tick/Second))
hostMemory                                     837532                       # Number of bytes of host memory used (Byte)
simInsts                                      1356467                       # Number of instructions simulated (Count)
simOps                                        2262701                       # Number of ops (including micro ops) simulated (Count)
hostInstRate                                   236837                       # Simulator instruction rate (inst/s) ((Count/Second))
hostOpRate                                     395063                       # Simulator op (including micro ops) rate (op/s) ((Count/Second))
system.caches.m_outstandReqHistSeqr::bucket_size            1                       (Unspecified)
system.caches.m_outstandReqHistSeqr::max_bucket            9                       (Unspecified)
system.caches.m_outstandReqHistSeqr::samples      2270772                       (Unspecified)
system.caches.m_outstandReqHistSeqr::mean     1.000011                       (Unspecified)
system.caches.m_outstandReqHistSeqr::gmean     1.000007                       (Unspecified)
system.caches.m_outstandReqHistSeqr::stdev     0.003251                       (Unspecified)
system.caches.m_outstandReqHistSeqr      |           0      0.00%      0.00% |     2270748    100.00%    100.00% |          24      0.00%    100.00% |           0      0.00%    100.00% |           0      0.00%    100.00% |           0      0.00%    100.00% |           0      0.00%    100.00% |           0      0.00%    100.00% |           0      0.00%    100.00% |           0      0.00%    100.00% (Unspecified)
system.caches.m_outstandReqHistSeqr::total      2270772                       (Unspecified)
system.caches.m_latencyHistSeqr::bucket_size           64                       (Unspecified)
system.caches.m_latencyHistSeqr::max_bucket          639                       (Unspecified)
system.caches.m_latencyHistSeqr::samples      2270772                       (Unspecified)
system.caches.m_latencyHistSeqr::mean        1.345731                       (Unspecified)
system.caches.m_latencyHistSeqr::gmean       1.021338                       (Unspecified)
system.caches.m_latencyHistSeqr::stdev       5.326718                       (Unspecified)
system.caches.m_latencyHistSeqr          |     2267327     99.85%     99.85% |        3177      0.14%     99.99% |         101      0.00%     99.99% |          35      0.00%     99.99% |          86      0.00%    100.00% |          45      0.00%    100.00% |           1      0.00%    100.00% |           0      0.00%    100.00% |           0      0.00%    100.00% |           0      0.00%    100.00% (Unspecified)
system.caches.m_latencyHistSeqr::total        2270772                       (Unspecified)
system.caches.m_hitLatencyHistSeqr::bucket_size            1                       (Unspecified)
system.caches.m_hitLatencyHistSeqr::max_bucket            9                       (Unspecified)
system.caches.m_hitLatencyHistSeqr::samples      2259339                       (Unspecified)
system.caches.m_hitLatencyHistSeqr::mean            1                       (Unspecified)
system.caches.m_hitLatencyHistSeqr::gmean            1                       (Unspecified)
system.caches.m_hitLatencyHistSeqr       |           0      0.00%      0.00% |     2259339    100.00%    100.00% |           0      0.00%    100.00% |           0      0.00%    100.00% |           0      0.00%    100.00% |           0      0.00%    100.00% |           0      0.00%    100.00% |           0      0.00%    100.00% |           0      0.00%    100.00% |           0      0.00%    100.00% (Unspecified)
system.caches.m_hitLatencyHistSeqr::total      2259339                       (Unspecified)
system.caches.m_missLatencyHistSeqr::bucket_size           64                       (Unspecified)
system.caches.m_missLatencyHistSeqr::max_bucket          639                       (Unspecified)
system.caches.m_missLatencyHistSeqr::samples        11433                       (Unspecified)
system.caches.m_missLatencyHistSeqr::mean    69.667629                       (Unspecified)
system.caches.m_missLatencyHistSeqr::gmean    66.248443                       (Unspecified)
system.caches.m_missLatencyHistSeqr::stdev    30.725891                       (Unspecified)
system.caches.m_missLatencyHistSeqr      |        7988     69.87%     69.87% |        3177     27.79%     97.66% |         101      0.88%     98.54% |          35      0.31%     98.85% |          86      0.75%     99.60% |          45      0.39%     99.99% |           1      0.01%    100.00% |           0      0.00%    100.00% |           0      0.00%    100.00% |           0      0.00%    100.00% (Unspecified)
system.caches.m_missLatencyHistSeqr::total        11433                       (Unspecified)
system.caches.L1Cache_Controller.Load    |      351617     16.87%     16.87% |     1308727     62.80%     79.68% |      423494     20.32%    100.00% |           0      0.00%    100.00% (Unspecified)
system.caches.L1Cache_Controller.Load::total      2083838                       (Unspecified)
system.caches.L1Cache_Controller.Store   |       22560     12.07%     12.07% |      126187     67.50%     79.57% |       38187     20.43%    100.00% |           0      0.00%    100.00% (Unspecified)
system.caches.L1Cache_Controller.Store::total       186934                       (Unspecified)
system.caches.L1Cache_Controller.Replacement |     2042876     61.73%     61.73% |      956794     28.91%     90.65% |      309439      9.35%    100.00% |           0      0.00%    100.00% (Unspecified)
system.caches.L1Cache_Controller.Replacement::total      3309109                       (Unspecified)
system.caches.L1Cache_Controller.FwdGetS |          14     48.28%     48.28% |          10     34.48%     82.76% |           5     17.24%    100.00% |           0      0.00%    100.00% (Unspecified)
system.caches.L1Cache_Controller.FwdGetS::total           29                       (Unspecified)
system.caches.L1Cache_Controller.FwdGetM |           7     46.67%     46.67% |           5     33.33%     80.00% |           3     20.00%    100.00% |           0      0.00%    100.00% (Unspecified)
system.caches.L1Cache_Controller.FwdGetM::total           15                       (Unspecified)
system.caches.L1Cache_Controller.Inv     |          20     47.62%     47.62% |          11     26.19%     73.81% |          11     26.19%    100.00% |           0      0.00%    100.00% (Unspecified)
system.caches.L1Cache_Controller.Inv::total           42                       (Unspecified)
system.caches.L1Cache_Controller.PutAck  |        6384     61.73%     61.73% |        2990     28.91%     90.65% |         967      9.35%    100.00% |           0      0.00%    100.00% (Unspecified)
system.caches.L1Cache_Controller.PutAck::total        10341                       (Unspecified)
system.caches.L1Cache_Controller.DataDirNoAcks |        6817     59.86%     59.86% |        3338     29.31%     89.16% |        1234     10.84%    100.00% |           0      0.00%    100.00% (Unspecified)
system.caches.L1Cache_Controller.DataDirNoAcks::total        11389                       (Unspecified)
system.caches.L1Cache_Controller.DataOwner |           7     15.91%     15.91% |          16     36.36%     52.27% |          21     47.73%    100.00% |           0      0.00%    100.00% (Unspecified)
system.caches.L1Cache_Controller.DataOwner::total           44                       (Unspecified)
system.caches.L1Cache_Controller.InvAck  |           7     16.67%     16.67% |          23     54.76%     71.43% |          12     28.57%    100.00% |           0      0.00%    100.00% (Unspecified)
system.caches.L1Cache_Controller.InvAck::total           42                       (Unspecified)
system.caches.L1Cache_Controller.I.Load  |        5790     58.37%     58.37% |        3014     30.39%     88.76% |        1115     11.24%    100.00% |           0      0.00%    100.00% (Unspecified)
system.caches.L1Cache_Controller.I.Load::total         9919                       (Unspecified)
system.caches.L1Cache_Controller.I.Store |         877     71.42%     71.42% |         242     19.71%     91.12% |         109      8.88%    100.00% |           0      0.00%    100.00% (Unspecified)
system.caches.L1Cache_Controller.I.Store::total         1228                       (Unspecified)
system.caches.L1Cache_Controller.IS_D.DataDirNoAcks |        5786     58.50%     58.50% |        3002     30.35%     88.86% |        1102     11.14%    100.00% |           0      0.00%    100.00% (Unspecified)
system.caches.L1Cache_Controller.IS_D.DataDirNoAcks::total         9890                       (Unspecified)
system.caches.L1Cache_Controller.IS_D.DataOwner |           4     13.79%     13.79% |          12     41.38%     55.17% |          13     44.83%    100.00% |           0      0.00%    100.00% (Unspecified)
system.caches.L1Cache_Controller.IS_D.DataOwner::total           29                       (Unspecified)
system.caches.L1Cache_Controller.IM_AD.DataDirNoAcks |         874     72.05%     72.05% |         238     19.62%     91.67% |         101      8.33%    100.00% |           0      0.00%    100.00% (Unspecified)
system.caches.L1Cache_Controller.IM_AD.DataDirNoAcks::total         1213                       (Unspecified)
system.caches.L1Cache_Controller.IM_AD.DataOwner |           3     20.00%     20.00% |           4     26.67%     46.67% |           8     53.33%    100.00% |           0      0.00%    100.00% (Unspecified)
system.caches.L1Cache_Controller.IM_AD.DataOwner::total           15                       (Unspecified)
system.caches.L1Cache_Controller.IM_AD.InvAck |           1     25.00%     25.00% |           3     75.00%    100.00% |           0      0.00%    100.00% |           0      0.00%    100.00% (Unspecified)
system.caches.L1Cache_Controller.IM_AD.InvAck::total            4                       (Unspecified)
system.caches.L1Cache_Controller.S.Load  |      326886     18.62%     18.62% |     1095673     62.41%     81.03% |      332934     18.97%    100.00% |           0      0.00%    100.00% (Unspecified)
system.caches.L1Cache_Controller.S.Load::total      1755493                       (Unspecified)
system.caches.L1Cache_Controller.S.Store |         157     54.90%     54.90% |          98     34.27%     89.16% |          31     10.84%    100.00% |           0      0.00%    100.00% (Unspecified)
system.caches.L1Cache_Controller.S.Store::total          286                       (Unspecified)
system.caches.L1Cache_Controller.S.Replacement |        5415     60.29%     60.29% |        2706     30.13%     90.41% |         861      9.59%    100.00% |           0      0.00%    100.00% (Unspecified)
system.caches.L1Cache_Controller.S.Replacement::total         8982                       (Unspecified)
system.caches.L1Cache_Controller.S.Inv   |          20     47.62%     47.62% |          11     26.19%     73.81% |          11     26.19%    100.00% |           0      0.00%    100.00% (Unspecified)
system.caches.L1Cache_Controller.S.Inv::total           42                       (Unspecified)
system.caches.L1Cache_Controller.SM_AD.DataDirNoAcks |         157     54.90%     54.90% |          98     34.27%     89.16% |          31     10.84%    100.00% |           0      0.00%    100.00% (Unspecified)
system.caches.L1Cache_Controller.SM_AD.DataDirNoAcks::total          286                       (Unspecified)
system.caches.L1Cache_Controller.SM_AD.InvAck |           6     15.79%     15.79% |          20     52.63%     68.42% |          12     31.58%    100.00% |           0      0.00%    100.00% (Unspecified)
system.caches.L1Cache_Controller.SM_AD.InvAck::total           38                       (Unspecified)
system.caches.L1Cache_Controller.M.Load  |       18941      5.95%      5.95% |      210040     65.96%     71.91% |       89445     28.09%    100.00% |           0      0.00%    100.00% (Unspecified)
system.caches.L1Cache_Controller.M.Load::total       318426                       (Unspecified)
system.caches.L1Cache_Controller.M.Store |       21526     11.61%     11.61% |      125847     67.87%     79.48% |       38047     20.52%    100.00% |           0      0.00%    100.00% (Unspecified)
system.caches.L1Cache_Controller.M.Store::total       185420                       (Unspecified)
system.caches.L1Cache_Controller.M.Replacement |         969     71.30%     71.30% |         284     20.90%     92.20% |         106      7.80%    100.00% |           0      0.00%    100.00% (Unspecified)
system.caches.L1Cache_Controller.M.Replacement::total         1359                       (Unspecified)
system.caches.L1Cache_Controller.M.FwdGetS |          14     48.28%     48.28% |          10     34.48%     82.76% |           5     17.24%    100.00% |           0      0.00%    100.00% (Unspecified)
system.caches.L1Cache_Controller.M.FwdGetS::total           29                       (Unspecified)
system.caches.L1Cache_Controller.M.FwdGetM |           7     46.67%     46.67% |           5     33.33%     80.00% |           3     20.00%    100.00% |           0      0.00%    100.00% (Unspecified)
system.caches.L1Cache_Controller.M.FwdGetM::total           15                       (Unspecified)
system.caches.L1Cache_Controller.MI_A.Replacement |      309110     71.30%     71.30% |       90596     20.90%     92.20% |       33814      7.80%    100.00% |           0      0.00%    100.00% (Unspecified)
system.caches.L1Cache_Controller.MI_A.Replacement::total       433520                       (Unspecified)
system.caches.L1Cache_Controller.MI_A.PutAck |         969     71.30%     71.30% |         284     20.90%     92.20% |         106      7.80%    100.00% |           0      0.00%    100.00% (Unspecified)
system.caches.L1Cache_Controller.MI_A.PutAck::total         1359                       (Unspecified)
system.caches.L1Cache_Controller.SI_A.Replacement |     1727382     60.29%     60.29% |      863208     30.13%     90.41% |      274658      9.59%    100.00% |           0      0.00%    100.00% (Unspecified)
system.caches.L1Cache_Controller.SI_A.Replacement::total      2865248                       (Unspecified)
system.caches.L1Cache_Controller.SI_A.PutAck |        5415     60.29%     60.29% |        2706     30.13%     90.41% |         861      9.59%    100.00% |           0      0.00%    100.00% (Unspecified)
system.caches.L1Cache_Controller.SI_A.PutAck::total         8982                       (Unspecified)
system.caches.Directory_Controller.GetS          9919      0.00%      0.00% (Unspecified)
system.caches.Directory_Controller.GetM          1514      0.00%      0.00% (Unspecified)
system.caches.Directory_Controller.PutSNotLast         1246      0.00%      0.00% (Unspecified)
system.caches.Directory_Controller.PutSLast         7736      0.00%      0.00% (Unspecified)
system.caches.Directory_Controller.PutMOwner         1359      0.00%      0.00% (Unspecified)
system.caches.Directory_Controller.Data            29      0.00%      0.00% (Unspecified)
system.caches.Directory_Controller.MemData        11389      0.00%      0.00% (Unspecified)
system.caches.Directory_Controller.MemAck         1388      0.00%      0.00% (Unspecified)
system.caches.Directory_Controller.I.GetS         8480      0.00%      0.00% (Unspecified)
system.caches.Directory_Controller.I.GetM         1209      0.00%      0.00% (Unspecified)
system.caches.Directory_Controller.S.GetS         1410      0.00%      0.00% (Unspecified)
system.caches.Directory_Controller.S.GetM          290      0.00%      0.00% (Unspecified)
system.caches.Directory_Controller.S.PutSNotLast         1238      0.00%      0.00% (Unspecified)
system.caches.Directory_Controller.S.PutSLast         7736      0.00%      0.00% (Unspecified)
system.caches.Directory_Controller.M.GetS           29      0.00%      0.00% (Unspecified)
system.caches.Directory_Controller.M.GetM           15      0.00%      0.00% (Unspecified)
system.caches.Directory_Controller.M.PutMOwner         1359      0.00%      0.00% (Unspecified)
system.caches.Directory_Controller.S_D.Data           29      0.00%      0.00% (Unspecified)
system.caches.Directory_Controller.S_m.PutSNotLast            8      0.00%      0.00% (Unspecified)
system.caches.Directory_Controller.S_m.MemData         9890      0.00%      0.00% (Unspecified)
system.caches.Directory_Controller.M_m.MemData         1499      0.00%      0.00% (Unspecified)
system.caches.Directory_Controller.MI_m.MemAck         1359      0.00%      0.00% (Unspecified)
system.caches.Directory_Controller.SS_m.MemAck           29      0.00%      0.00% (Unspecified)
system.caches.MachineType.L1Cache.miss_mach_latency_hist_seqr::bucket_size            4                       (Unspecified)
system.caches.MachineType.L1Cache.miss_mach_latency_hist_seqr::max_bucket           39                       (Unspecified)
system.caches.MachineType.L1Cache.miss_mach_latency_hist_seqr::samples           44                       (Unspecified)
system.caches.MachineType.L1Cache.miss_mach_latency_hist_seqr::mean    20.090909                       (Unspecified)
system.caches.MachineType.L1Cache.miss_mach_latency_hist_seqr::gmean    19.515432                       (Unspecified)
system.caches.MachineType.L1Cache.miss_mach_latency_hist_seqr::stdev     4.973503                       (Unspecified)
system.caches.MachineType.L1Cache.miss_mach_latency_hist_seqr |           0      0.00%      0.00% |           0      0.00%      0.00% |           0      0.00%      0.00% |           0      0.00%      0.00% |          26     59.09%     59.09% |           0      0.00%     59.09% |          18     40.91%    100.00% |           0      0.00%    100.00% |           0      0.00%    100.00% |           0      0.00%    100.00% (Unspecified)
system.caches.MachineType.L1Cache.miss_mach_latency_hist_seqr::total           44                       (Unspecified)
system.caches.MachineType.L1Cache.incomplete_times_seqr           44                       (Unspecified)
system.caches.MachineType.Directory.miss_mach_latency_hist_seqr::bucket_size           64                      
system.caches.MachineType.Directory.miss_mach_latency_hist_seqr::max_bucket          639                      
system.caches.MachineType.Directory.miss_mach_latency_hist_seqr::samples        11389                      
system.caches.MachineType.Directory.miss_mach_latency_hist_seqr::mean    69.859162                      
system.caches.MachineType.Directory.miss_mach_latency_hist_seqr::gmean    66.561998                      
system.caches.MachineType.Directory.miss_mach_latency_hist_seqr::stdev    30.628443                      
system.caches.MachineType.Directory.miss_mach_latency_hist_seqr |        7944     69.75%     69.75% |        3177     27.90%     97.65% |         101      0.89%     98.53% |          35      0.31%     98.84% |          86      0.76%     99.60% |          45      0.40%     99.99% |           1      0.01%    100.00% |           0      0.00%    100.00% |           0      0.00%    100.00% |           0      0.00%    100.00% (Unspecified)
system.caches.MachineType.Directory.miss_mach_latency_hist_seqr::total        11389                      
system.caches.MachineType.Directory.miss_latency_hist_seqr.issue_to_initial_request::bucket_size            1                      
system.caches.MachineType.Directory.miss_latency_hist_seqr.issue_to_initial_request::max_bucket            9                      
system.caches.MachineType.Directory.miss_latency_hist_seqr.issue_to_initial_request::samples            1                      
system.caches.MachineType.Directory.miss_latency_hist_seqr.issue_to_initial_request::stdev          nan                      
system.caches.MachineType.Directory.miss_latency_hist_seqr.issue_to_initial_request |           1    100.00%    100.00% |           0      0.00%    100.00% |           0      0.00%    100.00% |           0      0.00%    100.00% |           0      0.00%    100.00% |           0      0.00%    100.00% |           0      0.00%    100.00% |           0      0.00%    100.00% |           0      0.00%    100.00% |           0      0.00%    100.00% (Unspecified)
system.caches.MachineType.Directory.miss_latency_hist_seqr.issue_to_initial_request::total            1                      
system.caches.MachineType.Directory.miss_latency_hist_seqr.initial_to_forward::bucket_size            1                      
system.caches.MachineType.Directory.miss_latency_hist_seqr.initial_to_forward::max_bucket            9                      
system.caches.MachineType.Directory.miss_latency_hist_seqr.initial_to_forward::samples            1                      
system.caches.MachineType.Directory.miss_latency_hist_seqr.initial_to_forward::stdev          nan                      
system.caches.MachineType.Directory.miss_latency_hist_seqr.initial_to_forward |           1    100.00%    100.00% |           0      0.00%    100.00% |           0      0.00%    100.00% |           0      0.00%    100.00% |           0      0.00%    100.00% |           0      0.00%    100.00% |           0      0.00%    100.00% |           0      0.00%    100.00% |           0      0.00%    100.00% |           0      0.00%    100.00% (Unspecified)
system.caches.MachineType.Directory.miss_latency_hist_seqr.initial_to_forward::total            1                      
system.caches.MachineType.Directory.miss_latency_hist_seqr.forward_to_first_response::bucket_size            1                      
system.caches.MachineType.Directory.miss_latency_hist_seqr.forward_to_first_response::max_bucket            9                      
system.caches.MachineType.Directory.miss_latency_hist_seqr.forward_to_first_response::samples            1                      
system.caches.MachineType.Directory.miss_latency_hist_seqr.forward_to_first_response::stdev          nan                      
system.caches.MachineType.Directory.miss_latency_hist_seqr.forward_to_first_response |           1    100.00%    100.00% |           0      0.00%    100.00% |           0      0.00%    100.00% |           0      0.00%    100.00% |           0      0.00%    100.00% |           0      0.00%    100.00% |           0      0.00%    100.00% |           0      0.00%    100.00% |           0      0.00%    100.00% |           0      0.00%    100.00% (Unspecified)
system.caches.MachineType.Directory.miss_latency_hist_seqr.forward_to_first_response::total            1                      
system.caches.MachineType.Directory.miss_latency_hist_seqr.first_response_to_completion::bucket_size            8                      
system.caches.MachineType.Directory.miss_latency_hist_seqr.first_response_to_completion::max_bucket           79                      
system.caches.MachineType.Directory.miss_latency_hist_seqr.first_response_to_completion::samples            1                      
system.caches.MachineType.Directory.miss_latency_hist_seqr.first_response_to_completion::mean           73                      
system.caches.MachineType.Directory.miss_latency_hist_seqr.first_response_to_completion::gmean    73.000000                      
system.caches.MachineType.Directory.miss_latency_hist_seqr.first_response_to_completion::stdev          nan                      
system.caches.MachineType.Directory.miss_latency_hist_seqr.first_response_to_completion |           0      0.00%      0.00% |           0      0.00%      0.00% |           0      0.00%      0.00% |           0      0.00%      0.00% |           0      0.00%      0.00% |           0      0.00%      0.00% |           0      0.00%      0.00% |           0      0.00%      0.00% |           0      0.00%      0.00% |           1    100.00%    100.00% (Unspecified)
system.caches.MachineType.Directory.miss_latency_hist_seqr.first_response_to_completion::total            1                      
system.caches.MachineType.Directory.incomplete_times_seqr        11388                       (Unspecified)
system.caches.RequestType.LD.latency_hist_seqr::bucket_size           64                       (Unspecified)
system.caches.RequestType.LD.latency_hist_seqr::max_bucket          639                       (Unspecified)
system.caches.RequestType.LD.latency_hist_seqr::samples       375863                       (Unspecified)
system.caches.RequestType.LD.latency_hist_seqr::mean     1.989573                       (Unspecified)
system.caches.RequestType.LD.latency_hist_seqr::gmean     1.060896                       (Unspecified)
system.caches.RequestType.LD.latency_hist_seqr::stdev     9.132604                       (Unspecified)
system.caches.RequestType.LD.latency_hist_seqr |      373990     99.50%     99.50% |        1733      0.46%     99.96% |          53      0.01%     99.98% |          22      0.01%     99.98% |          42      0.01%     99.99% |          22      0.01%    100.00% |           1      0.00%    100.00% |           0      0.00%    100.00% |           0      0.00%    100.00% |           0      0.00%    100.00% (Unspecified)
system.caches.RequestType.LD.latency_hist_seqr::total       375863                       (Unspecified)
system.caches.RequestType.LD.hit_latency_hist_seqr::bucket_size            1                       (Unspecified)
system.caches.RequestType.LD.hit_latency_hist_seqr::max_bucket            9                       (Unspecified)
system.caches.RequestType.LD.hit_latency_hist_seqr::samples       370596                       (Unspecified)
system.caches.RequestType.LD.hit_latency_hist_seqr::mean            1                       (Unspecified)
system.caches.RequestType.LD.hit_latency_hist_seqr::gmean            1                       (Unspecified)
system.caches.RequestType.LD.hit_latency_hist_seqr |           0      0.00%      0.00% |      370596    100.00%    100.00% |           0      0.00%    100.00% |           0      0.00%    100.00% |           0      0.00%    100.00% |           0      0.00%    100.00% |           0      0.00%    100.00% |           0      0.00%    100.00% |           0      0.00%    100.00% |           0      0.00%    100.00% (Unspecified)
system.caches.RequestType.LD.hit_latency_hist_seqr::total       370596                       (Unspecified)
system.caches.RequestType.LD.miss_latency_hist_seqr::bucket_size           64                       (Unspecified)
system.caches.RequestType.LD.miss_latency_hist_seqr::max_bucket          639                       (Unspecified)
system.caches.RequestType.LD.miss_latency_hist_seqr::samples         5267                       (Unspecified)
system.caches.RequestType.LD.miss_latency_hist_seqr::mean    71.617809                       (Unspecified)
system.caches.RequestType.LD.miss_latency_hist_seqr::gmean    67.929096                       (Unspecified)
system.caches.RequestType.LD.miss_latency_hist_seqr::stdev    32.172749                       (Unspecified)
system.caches.RequestType.LD.miss_latency_hist_seqr |        3394     64.44%     64.44% |        1733     32.90%     97.34% |          53      1.01%     98.35% |          22      0.42%     98.77% |          42      0.80%     99.56% |          22      0.42%     99.98% |           1      0.02%    100.00% |           0      0.00%    100.00% |           0      0.00%    100.00% |           0      0.00%    100.00% (Unspecified)
system.caches.RequestType.LD.miss_latency_hist_seqr::total         5267                       (Unspecified)
system.caches.RequestType.ST.latency_hist_seqr::bucket_size           64                       (Unspecified)
system.caches.RequestType.ST.latency_hist_seqr::max_bucket          639                       (Unspecified)
system.caches.RequestType.ST.latency_hist_seqr::samples       173855                       (Unspecified)
system.caches.RequestType.ST.latency_hist_seqr::mean     1.492330                       (Unspecified)
system.caches.RequestType.ST.latency_hist_seqr::gmean     1.033041                       (Unspecified)
system.caches.RequestType.ST.latency_hist_seqr::stdev     6.044605                       (Unspecified)
system.caches.RequestType.ST.latency_hist_seqr |      173581     99.84%     99.84% |         248      0.14%     99.99% |          13      0.01%     99.99% |           2      0.00%     99.99% |           8      0.00%    100.00% |           3      0.00%    100.00% |           0      0.00%    100.00% |           0      0.00%    100.00% |           0      0.00%    100.00% |           0      0.00%    100.00% (Unspecified)
system.caches.RequestType.ST.latency_hist_seqr::total       173855                       (Unspecified)
system.caches.RequestType.ST.hit_latency_hist_seqr::bucket_size            1                       (Unspecified)
system.caches.RequestType.ST.hit_latency_hist_seqr::max_bucket            9                       (Unspecified)
system.caches.RequestType.ST.hit_latency_hist_seqr::samples       172467                       (Unspecified)
system.caches.RequestType.ST.hit_latency_hist_seqr::mean            1                       (Unspecified)
system.caches.RequestType.ST.hit_latency_hist_seqr::gmean            1                       (Unspecified)
system.caches.RequestType.ST.hit_latency_hist_seqr |           0      0.00%      0.00% |      172467    100.00%    100.00% |           0      0.00%    100.00% |           0      0.00%    100.00% |           0      0.00%    100.00% |           0      0.00%    100.00% |           0      0.00%    100.00% |           0      0.00%    100.00% |           0      0.00%    100.00% |           0      0.00%    100.00% (Unspecified)
system.caches.RequestType.ST.hit_latency_hist_seqr::total       172467                       (Unspecified)
system.caches.RequestType.ST.miss_latency_hist_seqr::bucket_size           64                       (Unspecified)
system.caches.RequestType.ST.miss_latency_hist_seqr::max_bucket          639                       (Unspecified)
system.caches.RequestType.ST.miss_latency_hist_seqr::samples         1388                       (Unspecified)
system.caches.RequestType.ST.miss_latency_hist_seqr::mean    62.667147                       (Unspecified)
system.caches.RequestType.ST.miss_latency_hist_seqr::gmean    58.655166                       (Unspecified)
system.caches.RequestType.ST.miss_latency_hist_seqr::stdev    28.365091                       (Unspecified)
system.caches.RequestType.ST.miss_latency_hist_seqr |        1114     80.26%     80.26% |         248     17.87%     98.13% |          13      0.94%     99.06% |           2      0.14%     99.21% |           8      0.58%     99.78% |           3      0.22%    100.00% |           0      0.00%    100.00% |           0      0.00%    100.00% |           0      0.00%    100.00% |           0      0.00%    100.00% (Unspecified)
system.caches.RequestType.ST.miss_latency_hist_seqr::total         1388                       (Unspecified)
system.caches.RequestType.IFETCH.latency_hist_seqr::bucket_size           64                       (Unspecified)
system.caches.RequestType.IFETCH.latency_hist_seqr::max_bucket          639                       (Unspecified)
system.caches.RequestType.IFETCH.latency_hist_seqr::samples      1707975                       (Unspecified)
system.caches.RequestType.IFETCH.latency_hist_seqr::mean     1.187719                       (Unspecified)
system.caches.RequestType.IFETCH.latency_hist_seqr::gmean     1.011532                       (Unspecified)
system.caches.RequestType.IFETCH.latency_hist_seqr::stdev     3.898148                       (Unspecified)
system.caches.RequestType.IFETCH.latency_hist_seqr |     1706701     99.93%     99.93% |        1175      0.07%     99.99% |          34      0.00%    100.00% |          11      0.00%    100.00% |          35      0.00%    100.00% |          19      0.00%    100.00% |           0      0.00%    100.00% |           0      0.00%    100.00% |           0      0.00%    100.00% |           0      0.00%    100.00% (Unspecified)
system.caches.RequestType.IFETCH.latency_hist_seqr::total      1707975                       (Unspecified)
system.caches.RequestType.IFETCH.hit_latency_hist_seqr::bucket_size            1                       (Unspecified)
system.caches.RequestType.IFETCH.hit_latency_hist_seqr::max_bucket            9                       (Unspecified)
system.caches.RequestType.IFETCH.hit_latency_hist_seqr::samples      1703323                       (Unspecified)
system.caches.RequestType.IFETCH.hit_latency_hist_seqr::mean            1                       (Unspecified)
system.caches.RequestType.IFETCH.hit_latency_hist_seqr::gmean            1                       (Unspecified)
system.caches.RequestType.IFETCH.hit_latency_hist_seqr |           0      0.00%      0.00% |     1703323    100.00%    100.00% |           0      0.00%    100.00% |           0      0.00%    100.00% |           0      0.00%    100.00% |           0      0.00%    100.00% |           0      0.00%    100.00% |           0      0.00%    100.00% |           0      0.00%    100.00% |           0      0.00%    100.00% (Unspecified)
system.caches.RequestType.IFETCH.hit_latency_hist_seqr::total      1703323                       (Unspecified)
system.caches.RequestType.IFETCH.miss_latency_hist_seqr::bucket_size           64                       (Unspecified)
system.caches.RequestType.IFETCH.miss_latency_hist_seqr::max_bucket          639                       (Unspecified)
system.caches.RequestType.IFETCH.miss_latency_hist_seqr::samples         4652                       (Unspecified)
system.caches.RequestType.IFETCH.miss_latency_hist_seqr::mean    69.920679                       (Unspecified)
system.caches.RequestType.IFETCH.miss_latency_hist_seqr::gmean    67.344787                       (Unspecified)
system.caches.RequestType.IFETCH.miss_latency_hist_seqr::stdev    29.018636                       (Unspecified)
system.caches.RequestType.IFETCH.miss_latency_hist_seqr |        3378     72.61%     72.61% |        1175     25.26%     97.87% |          34      0.73%     98.60% |          11      0.24%     98.84% |          35      0.75%     99.59% |          19      0.41%    100.00% |           0      0.00%    100.00% |           0      0.00%    100.00% |           0      0.00%    100.00% |           0      0.00%    100.00% (Unspecified)
system.caches.RequestType.IFETCH.miss_latency_hist_seqr::total         4652                       (Unspecified)
system.caches.RequestType.RMW_Read.latency_hist_seqr::bucket_size           64                       (Unspecified)
system.caches.RequestType.RMW_Read.latency_hist_seqr::max_bucket          639                       (Unspecified)
system.caches.RequestType.RMW_Read.latency_hist_seqr::samples        11677                       (Unspecified)
system.caches.RequestType.RMW_Read.latency_hist_seqr::mean     1.402929                       (Unspecified)
system.caches.RequestType.RMW_Read.latency_hist_seqr::gmean     1.026972                       (Unspecified)
system.caches.RequestType.RMW_Read.latency_hist_seqr::stdev     6.140660                       (Unspecified)
system.caches.RequestType.RMW_Read.latency_hist_seqr |       11662     99.87%     99.87% |          13      0.11%     99.98% |           0      0.00%     99.98% |           0      0.00%     99.98% |           1      0.01%     99.99% |           1      0.01%    100.00% |           0      0.00%    100.00% |           0      0.00%    100.00% |           0      0.00%    100.00% |           0      0.00%    100.00% (Unspecified)
system.caches.RequestType.RMW_Read.latency_hist_seqr::total        11677                       (Unspecified)
system.caches.RequestType.RMW_Read.hit_latency_hist_seqr::bucket_size            1                       (Unspecified)
system.caches.RequestType.RMW_Read.hit_latency_hist_seqr::max_bucket            9                       (Unspecified)
system.caches.RequestType.RMW_Read.hit_latency_hist_seqr::samples        11599                       (Unspecified)
system.caches.RequestType.RMW_Read.hit_latency_hist_seqr::mean            1                       (Unspecified)
system.caches.RequestType.RMW_Read.hit_latency_hist_seqr::gmean            1                       (Unspecified)
system.caches.RequestType.RMW_Read.hit_latency_hist_seqr |           0      0.00%      0.00% |       11599    100.00%    100.00% |           0      0.00%    100.00% |           0      0.00%    100.00% |           0      0.00%    100.00% |           0      0.00%    100.00% |           0      0.00%    100.00% |           0      0.00%    100.00% |           0      0.00%    100.00% |           0      0.00%    100.00% (Unspecified)
system.caches.RequestType.RMW_Read.hit_latency_hist_seqr::total        11599                       (Unspecified)
system.caches.RequestType.RMW_Read.miss_latency_hist_seqr::bucket_size           64                       (Unspecified)
system.caches.RequestType.RMW_Read.miss_latency_hist_seqr::max_bucket          639                       (Unspecified)
system.caches.RequestType.RMW_Read.miss_latency_hist_seqr::samples           78                       (Unspecified)
system.caches.RequestType.RMW_Read.miss_latency_hist_seqr::mean    61.320513                       (Unspecified)
system.caches.RequestType.RMW_Read.miss_latency_hist_seqr::gmean    53.746778                       (Unspecified)
system.caches.RequestType.RMW_Read.miss_latency_hist_seqr::stdev    45.350437                       (Unspecified)
system.caches.RequestType.RMW_Read.miss_latency_hist_seqr |          63     80.77%     80.77% |          13     16.67%     97.44% |           0      0.00%     97.44% |           0      0.00%     97.44% |           1      1.28%     98.72% |           1      1.28%    100.00% |           0      0.00%    100.00% |           0      0.00%    100.00% |           0      0.00%    100.00% |           0      0.00%    100.00% (Unspecified)
system.caches.RequestType.RMW_Read.miss_latency_hist_seqr::total           78                       (Unspecified)
system.caches.RequestType.Locked_RMW_Read.latency_hist_seqr::bucket_size           16                       (Unspecified)
system.caches.RequestType.Locked_RMW_Read.latency_hist_seqr::max_bucket          159                       (Unspecified)
system.caches.RequestType.Locked_RMW_Read.latency_hist_seqr::samples          701                       (Unspecified)
system.caches.RequestType.Locked_RMW_Read.latency_hist_seqr::mean     4.159772                       (Unspecified)
system.caches.RequestType.Locked_RMW_Read.latency_hist_seqr::gmean     1.289548                       (Unspecified)
system.caches.RequestType.Locked_RMW_Read.latency_hist_seqr::stdev    13.533773                       (Unspecified)
system.caches.RequestType.Locked_RMW_Read.latency_hist_seqr |         653     93.15%     93.15% |          17      2.43%     95.58% |           4      0.57%     96.15% |          18      2.57%     98.72% |           4      0.57%     99.29% |           3      0.43%     99.71% |           1      0.14%     99.86% |           0      0.00%     99.86% |           0      0.00%     99.86% |           1      0.14%    100.00% (Unspecified)
system.caches.RequestType.Locked_RMW_Read.latency_hist_seqr::total          701                       (Unspecified)
system.caches.RequestType.Locked_RMW_Read.hit_latency_hist_seqr::bucket_size            1                       (Unspecified)
system.caches.RequestType.Locked_RMW_Read.hit_latency_hist_seqr::max_bucket            9                       (Unspecified)
system.caches.RequestType.Locked_RMW_Read.hit_latency_hist_seqr::samples          653                       (Unspecified)
system.caches.RequestType.Locked_RMW_Read.hit_latency_hist_seqr::mean            1                       (Unspecified)
system.caches.RequestType.Locked_RMW_Read.hit_latency_hist_seqr::gmean            1                       (Unspecified)
system.caches.RequestType.Locked_RMW_Read.hit_latency_hist_seqr |           0      0.00%      0.00% |         653    100.00%    100.00% |           0      0.00%    100.00% |           0      0.00%    100.00% |           0      0.00%    100.00% |           0      0.00%    100.00% |           0      0.00%    100.00% |           0      0.00%    100.00% |           0      0.00%    100.00% |           0      0.00%    100.00% (Unspecified)
system.caches.RequestType.Locked_RMW_Read.hit_latency_hist_seqr::total          653                       (Unspecified)
system.caches.RequestType.Locked_RMW_Read.miss_latency_hist_seqr::bucket_size           16                       (Unspecified)
system.caches.RequestType.Locked_RMW_Read.miss_latency_hist_seqr::max_bucket          159                       (Unspecified)
system.caches.RequestType.Locked_RMW_Read.miss_latency_hist_seqr::samples           48                       (Unspecified)
system.caches.RequestType.Locked_RMW_Read.miss_latency_hist_seqr::mean    47.145833                       (Unspecified)
system.caches.RequestType.Locked_RMW_Read.miss_latency_hist_seqr::gmean    41.006089                       (Unspecified)
system.caches.RequestType.Locked_RMW_Read.miss_latency_hist_seqr::stdev    26.497683                       (Unspecified)
system.caches.RequestType.Locked_RMW_Read.miss_latency_hist_seqr |           0      0.00%      0.00% |          17     35.42%     35.42% |           4      8.33%     43.75% |          18     37.50%     81.25% |           4      8.33%     89.58% |           3      6.25%     95.83% |           1      2.08%     97.92% |           0      0.00%     97.92% |           0      0.00%     97.92% |           1      2.08%    100.00% (Unspecified)
system.caches.RequestType.Locked_RMW_Read.miss_latency_hist_seqr::total           48                       (Unspecified)
system.caches.RequestType.Locked_RMW_Write.latency_hist_seqr::bucket_size            1                       (Unspecified)
system.caches.RequestType.Locked_RMW_Write.latency_hist_seqr::max_bucket            9                       (Unspecified)
system.caches.RequestType.Locked_RMW_Write.latency_hist_seqr::samples          701                       (Unspecified)
system.caches.RequestType.Locked_RMW_Write.latency_hist_seqr::mean            1                       (Unspecified)
system.caches.RequestType.Locked_RMW_Write.latency_hist_seqr::gmean            1                       (Unspecified)
system.caches.RequestType.Locked_RMW_Write.latency_hist_seqr |           0      0.00%      0.00% |         701    100.00%    100.00% |           0      0.00%    100.00% |           0      0.00%    100.00% |           0      0.00%    100.00% |           0      0.00%    100.00% |           0      0.00%    100.00% |           0      0.00%    100.00% |           0      0.00%    100.00% |           0      0.00%    100.00% (Unspecified)
system.caches.RequestType.Locked_RMW_Write.latency_hist_seqr::total          701                       (Unspecified)
system.caches.RequestType.Locked_RMW_Write.hit_latency_hist_seqr::bucket_size            1                       (Unspecified)
system.caches.RequestType.Locked_RMW_Write.hit_latency_hist_seqr::max_bucket            9                       (Unspecified)
system.caches.RequestType.Locked_RMW_Write.hit_latency_hist_seqr::samples          701                       (Unspecified)
system.caches.RequestType.Locked_RMW_Write.hit_latency_hist_seqr::mean            1                       (Unspecified)
system.caches.RequestType.Locked_RMW_Write.hit_latency_hist_seqr::gmean            1                       (Unspecified)
system.caches.RequestType.Locked_RMW_Write.hit_latency_hist_seqr |           0      0.00%      0.00% |         701    100.00%    100.00% |           0      0.00%    100.00% |           0      0.00%    100.00% |           0      0.00%    100.00% |           0      0.00%    100.00% |           0      0.00%    100.00% |           0      0.00%    100.00% |           0      0.00%    100.00% |           0      0.00%    100.00% (Unspecified)
system.caches.RequestType.Locked_RMW_Write.hit_latency_hist_seqr::total          701                       (Unspecified)
system.caches.RequestTypeMachineType.LD.L1Cache.miss_type_mach_latency_hist_seqr::bucket_size            4                       (Unspecified)
system.caches.RequestTypeMachineType.LD.L1Cache.miss_type_mach_latency_hist_seqr::max_bucket           39                       (Unspecified)
system.caches.RequestTypeMachineType.LD.L1Cache.miss_type_mach_latency_hist_seqr::samples           29                       (Unspecified)
system.caches.RequestTypeMachineType.LD.L1Cache.miss_type_mach_latency_hist_seqr::mean    21.172414                       (Unspecified)
system.caches.RequestTypeMachineType.LD.L1Cache.miss_type_mach_latency_hist_seqr::gmean    20.567527                       (Unspecified)
system.caches.RequestTypeMachineType.LD.L1Cache.miss_type_mach_latency_hist_seqr::stdev     5.085476                       (Unspecified)
system.caches.RequestTypeMachineType.LD.L1Cache.miss_type_mach_latency_hist_seqr |           0      0.00%      0.00% |           0      0.00%      0.00% |           0      0.00%      0.00% |           0      0.00%      0.00% |          14     48.28%     48.28% |           0      0.00%     48.28% |          15     51.72%    100.00% |           0      0.00%    100.00% |           0      0.00%    100.00% |           0      0.00%    100.00% (Unspecified)
system.caches.RequestTypeMachineType.LD.L1Cache.miss_type_mach_latency_hist_seqr::total           29                       (Unspecified)
system.caches.RequestTypeMachineType.LD.Directory.miss_type_mach_latency_hist_seqr::bucket_size           64                       (Unspecified)
system.caches.RequestTypeMachineType.LD.Directory.miss_type_mach_latency_hist_seqr::max_bucket          639                       (Unspecified)
system.caches.RequestTypeMachineType.LD.Directory.miss_type_mach_latency_hist_seqr::samples         5238                       (Unspecified)
system.caches.RequestTypeMachineType.LD.Directory.miss_type_mach_latency_hist_seqr::mean    71.897098                       (Unspecified)
system.caches.RequestTypeMachineType.LD.Directory.miss_type_mach_latency_hist_seqr::gmean    68.379915                       (Unspecified)
system.caches.RequestTypeMachineType.LD.Directory.miss_type_mach_latency_hist_seqr::stdev    32.039191                       (Unspecified)
system.caches.RequestTypeMachineType.LD.Directory.miss_type_mach_latency_hist_seqr |        3365     64.24%     64.24% |        1733     33.09%     97.33% |          53      1.01%     98.34% |          22      0.42%     98.76% |          42      0.80%     99.56% |          22      0.42%     99.98% |           1      0.02%    100.00% |           0      0.00%    100.00% |           0      0.00%    100.00% |           0      0.00%    100.00% (Unspecified)
system.caches.RequestTypeMachineType.LD.Directory.miss_type_mach_latency_hist_seqr::total         5238                       (Unspecified)
system.caches.RequestTypeMachineType.ST.L1Cache.miss_type_mach_latency_hist_seqr::bucket_size            4                       (Unspecified)
system.caches.RequestTypeMachineType.ST.L1Cache.miss_type_mach_latency_hist_seqr::max_bucket           39                       (Unspecified)
system.caches.RequestTypeMachineType.ST.L1Cache.miss_type_mach_latency_hist_seqr::samples           10                       (Unspecified)
system.caches.RequestTypeMachineType.ST.L1Cache.miss_type_mach_latency_hist_seqr::mean           17                       (Unspecified)
system.caches.RequestTypeMachineType.ST.L1Cache.miss_type_mach_latency_hist_seqr::gmean    16.795979                       (Unspecified)
system.caches.RequestTypeMachineType.ST.L1Cache.miss_type_mach_latency_hist_seqr::stdev     3.162278                       (Unspecified)
system.caches.RequestTypeMachineType.ST.L1Cache.miss_type_mach_latency_hist_seqr |           0      0.00%      0.00% |           0      0.00%      0.00% |           0      0.00%      0.00% |           0      0.00%      0.00% |           9     90.00%     90.00% |           0      0.00%     90.00% |           1     10.00%    100.00% |           0      0.00%    100.00% |           0      0.00%    100.00% |           0      0.00%    100.00% (Unspecified)
system.caches.RequestTypeMachineType.ST.L1Cache.miss_type_mach_latency_hist_seqr::total           10                       (Unspecified)
system.caches.RequestTypeMachineType.ST.Directory.miss_type_mach_latency_hist_seqr::bucket_size           64                       (Unspecified)
system.caches.RequestTypeMachineType.ST.Directory.miss_type_mach_latency_hist_seqr::max_bucket          639                       (Unspecified)
system.caches.RequestTypeMachineType.ST.Directory.miss_type_mach_latency_hist_seqr::samples         1378                       (Unspecified)
system.caches.RequestTypeMachineType.ST.Directory.miss_type_mach_latency_hist_seqr::mean    62.998549                       (Unspecified)
system.caches.RequestTypeMachineType.ST.Directory.miss_type_mach_latency_hist_seqr::gmean    59.189885                       (Unspecified)
system.caches.RequestTypeMachineType.ST.Directory.miss_type_mach_latency_hist_seqr::stdev    28.197534                       (Unspecified)
system.caches.RequestTypeMachineType.ST.Directory.miss_type_mach_latency_hist_seqr |        1104     80.12%     80.12% |         248     18.00%     98.11% |          13      0.94%     99.06% |           2      0.15%     99.20% |           8      0.58%     99.78% |           3      0.22%    100.00% |           0      0.00%    100.00% |           0      0.00%    100.00% |           0      0.00%    100.00% |           0      0.00%    100.00% (Unspecified)
system.caches.RequestTypeMachineType.ST.Directory.miss_type_mach_latency_hist_seqr::total         1378                       (Unspecified)
system.caches.RequestTypeMachineType.IFETCH.Directory.miss_type_mach_latency_hist_seqr::bucket_size           64                       (Unspecified)
system.caches.RequestTypeMachineType.IFETCH.Directory.miss_type_mach_latency_hist_seqr::max_bucket          639                       (Unspecified)
system.caches.RequestTypeMachineType.IFETCH.Directory.miss_type_mach_latency_hist_seqr::samples         4652                       (Unspecified)
system.caches.RequestTypeMachineType.IFETCH.Directory.miss_type_mach_latency_hist_seqr::mean    69.920679                       (Unspecified)
system.caches.RequestTypeMachineType.IFETCH.Directory.miss_type_mach_latency_hist_seqr::gmean    67.344787                       (Unspecified)
system.caches.RequestTypeMachineType.IFETCH.Directory.miss_type_mach_latency_hist_seqr::stdev    29.018636                       (Unspecified)
system.caches.RequestTypeMachineType.IFETCH.Directory.miss_type_mach_latency_hist_seqr |        3378     72.61%     72.61% |        1175     25.26%     97.87% |          34      0.73%     98.60% |          11      0.24%     98.84% |          35      0.75%     99.59% |          19      0.41%    100.00% |           0      0.00%    100.00% |           0      0.00%    100.00% |           0      0.00%    100.00% |           0      0.00%    100.00% (Unspecified)
system.caches.RequestTypeMachineType.IFETCH.Directory.miss_type_mach_latency_hist_seqr::total         4652                       (Unspecified)
system.caches.RequestTypeMachineType.RMW_Read.L1Cache.miss_type_mach_latency_hist_seqr::bucket_size            4                       (Unspecified)
system.caches.RequestTypeMachineType.RMW_Read.L1Cache.miss_type_mach_latency_hist_seqr::max_bucket           39                       (Unspecified)
system.caches.RequestTypeMachineType.RMW_Read.L1Cache.miss_type_mach_latency_hist_seqr::samples            2                       (Unspecified)
system.caches.RequestTypeMachineType.RMW_Read.L1Cache.miss_type_mach_latency_hist_seqr::mean           21                       (Unspecified)
system.caches.RequestTypeMachineType.RMW_Read.L1Cache.miss_type_mach_latency_hist_seqr::gmean    20.396078                       (Unspecified)
system.caches.RequestTypeMachineType.RMW_Read.L1Cache.miss_type_mach_latency_hist_seqr::stdev     7.071068                       (Unspecified)
system.caches.RequestTypeMachineType.RMW_Read.L1Cache.miss_type_mach_latency_hist_seqr |           0      0.00%      0.00% |           0      0.00%      0.00% |           0      0.00%      0.00% |           0      0.00%      0.00% |           1     50.00%     50.00% |           0      0.00%     50.00% |           1     50.00%    100.00% |           0      0.00%    100.00% |           0      0.00%    100.00% |           0      0.00%    100.00% (Unspecified)
system.caches.RequestTypeMachineType.RMW_Read.L1Cache.miss_type_mach_latency_hist_seqr::total            2                       (Unspecified)
system.caches.RequestTypeMachineType.RMW_Read.Directory.miss_type_mach_latency_hist_seqr::bucket_size           64                       (Unspecified)
system.caches.RequestTypeMachineType.RMW_Read.Directory.miss_type_mach_latency_hist_seqr::max_bucket          639                       (Unspecified)
system.caches.RequestTypeMachineType.RMW_Read.Directory.miss_type_mach_latency_hist_seqr::samples           76                       (Unspecified)
system.caches.RequestTypeMachineType.RMW_Read.Directory.miss_type_mach_latency_hist_seqr::mean    62.381579                       (Unspecified)
system.caches.RequestTypeMachineType.RMW_Read.Directory.miss_type_mach_latency_hist_seqr::gmean    55.134859                       (Unspecified)
system.caches.RequestTypeMachineType.RMW_Read.Directory.miss_type_mach_latency_hist_seqr::stdev    45.457076                       (Unspecified)
system.caches.RequestTypeMachineType.RMW_Read.Directory.miss_type_mach_latency_hist_seqr |          61     80.26%     80.26% |          13     17.11%     97.37% |           0      0.00%     97.37% |           0      0.00%     97.37% |           1      1.32%     98.68% |           1      1.32%    100.00% |           0      0.00%    100.00% |           0      0.00%    100.00% |           0      0.00%    100.00% |           0      0.00%    100.00% (Unspecified)
system.caches.RequestTypeMachineType.RMW_Read.Directory.miss_type_mach_latency_hist_seqr::total           76                       (Unspecified)
system.caches.RequestTypeMachineType.Locked_RMW_Read.L1Cache.miss_type_mach_latency_hist_seqr::bucket_size            4                       (Unspecified)
system.caches.RequestTypeMachineType.Locked_RMW_Read.L1Cache.miss_type_mach_latency_hist_seqr::max_bucket           39                       (Unspecified)
system.caches.RequestTypeMachineType.Locked_RMW_Read.L1Cache.miss_type_mach_latency_hist_seqr::samples            3                       (Unspecified)
system.caches.RequestTypeMachineType.Locked_RMW_Read.L1Cache.miss_type_mach_latency_hist_seqr::mean    19.333333                       (Unspecified)
system.caches.RequestTypeMachineType.Locked_RMW_Read.L1Cache.miss_type_mach_latency_hist_seqr::gmean    18.810678                       (Unspecified)
system.caches.RequestTypeMachineType.Locked_RMW_Read.L1Cache.miss_type_mach_latency_hist_seqr::stdev     5.773503                       (Unspecified)
system.caches.RequestTypeMachineType.Locked_RMW_Read.L1Cache.miss_type_mach_latency_hist_seqr |           0      0.00%      0.00% |           0      0.00%      0.00% |           0      0.00%      0.00% |           0      0.00%      0.00% |           2     66.67%     66.67% |           0      0.00%     66.67% |           1     33.33%    100.00% |           0      0.00%    100.00% |           0      0.00%    100.00% |           0      0.00%    100.00% (Unspecified)
system.caches.RequestTypeMachineType.Locked_RMW_Read.L1Cache.miss_type_mach_latency_hist_seqr::total            3                       (Unspecified)
system.caches.RequestTypeMachineType.Locked_RMW_Read.Directory.miss_type_mach_latency_hist_seqr::bucket_size           16                       (Unspecified)
system.caches.RequestTypeMachineType.Locked_RMW_Read.Directory.miss_type_mach_latency_hist_seqr::max_bucket          159                       (Unspecified)
system.caches.RequestTypeMachineType.Locked_RMW_Read.Directory.miss_type_mach_latency_hist_seqr::samples           45                       (Unspecified)
system.caches.RequestTypeMachineType.Locked_RMW_Read.Directory.miss_type_mach_latency_hist_seqr::mean           49                       (Unspecified)
system.caches.RequestTypeMachineType.Locked_RMW_Read.Directory.miss_type_mach_latency_hist_seqr::gmean    43.192792                       (Unspecified)
system.caches.RequestTypeMachineType.Locked_RMW_Read.Directory.miss_type_mach_latency_hist_seqr::stdev    26.310212                       (Unspecified)
system.caches.RequestTypeMachineType.Locked_RMW_Read.Directory.miss_type_mach_latency_hist_seqr |           0      0.00%      0.00% |          14     31.11%     31.11% |           4      8.89%     40.00% |          18     40.00%     80.00% |           4      8.89%     88.89% |           3      6.67%     95.56% |           1      2.22%     97.78% |           0      0.00%     97.78% |           0      0.00%     97.78% |           1      2.22%    100.00% (Unspecified)
system.caches.RequestTypeMachineType.Locked_RMW_Read.Directory.miss_type_mach_latency_hist_seqr::total           45                       (Unspecified)
system.caches.controllers0.fullyBusyCycles        63840                       # cycles for which number of transistions == max transitions (Unspecified)
system.caches.controllers0.cacheMemory.m_demand_hits            0                       # Number of cache demand hits (Unspecified)
system.caches.controllers0.cacheMemory.m_demand_misses            0                       # Number of cache demand misses (Unspecified)
system.caches.controllers0.cacheMemory.m_demand_accesses            0                       # Number of cache demand accesses (Unspecified)
system.caches.controllers0.forwardFromDir.m_buf_msgs     0.001492                       # Average number of messages in buffer (Unspecified)
system.caches.controllers0.forwardFromDir.m_stall_time  4981.451611                       # Average number of cycles messages are stalled in this MB (Unspecified)
system.caches.controllers0.mandatoryQueue.m_buf_msgs     0.101747                       # Average number of messages in buffer (Unspecified)
system.caches.controllers0.mandatoryQueue.m_stall_time  1920.977822                       # Average number of cycles messages are stalled in this MB (Unspecified)
system.caches.controllers0.power_state.pwrStateResidencyTicks::UNDEFINED   4304956000                       # Cumulative time (in ticks) in various power states (Tick)
system.caches.controllers0.requestToDir.m_buf_msgs     0.003068                       # Average number of messages in buffer (Unspecified)
system.caches.controllers0.requestToDir.m_stall_time   999.999535                       # Average number of cycles messages are stalled in this MB (Unspecified)
system.caches.controllers0.responseFromDirOrSibling.m_buf_msgs     0.001587                       # Average number of messages in buffer (Unspecified)
system.caches.controllers0.responseFromDirOrSibling.m_stall_time  4999.915214                       # Average number of cycles messages are stalled in this MB (Unspecified)
system.caches.controllers0.responseToDirOrSibling.m_buf_msgs     0.000013                       # Average number of messages in buffer (Unspecified)
system.caches.controllers0.responseToDirOrSibling.m_stall_time   726.694768                       # Average number of cycles messages are stalled in this MB (Unspecified)
system.caches.controllers1.fullyBusyCycles        29900                       # cycles for which number of transistions == max transitions (Unspecified)
system.caches.controllers1.cacheMemory.m_demand_hits            0                       # Number of cache demand hits (Unspecified)
system.caches.controllers1.cacheMemory.m_demand_misses            0                       # Number of cache demand misses (Unspecified)
system.caches.controllers1.cacheMemory.m_demand_accesses            0                       # Number of cache demand accesses (Unspecified)
system.caches.controllers1.forwardFromDir.m_buf_msgs     0.000701                       # Average number of messages in buffer (Unspecified)
system.caches.controllers1.forwardFromDir.m_stall_time  3623.611949                       # Average number of cycles messages are stalled in this MB (Unspecified)
system.caches.controllers1.mandatoryQueue.m_buf_msgs     0.340262                       # Average number of messages in buffer (Unspecified)
system.caches.controllers1.mandatoryQueue.m_stall_time  1161.096885                       # Average number of cycles messages are stalled in this MB (Unspecified)
system.caches.controllers1.power_state.pwrStateResidencyTicks::UNDEFINED   4304956000                       # Cumulative time (in ticks) in various power states (Tick)
system.caches.controllers1.requestToDir.m_buf_msgs     0.001474                       # Average number of messages in buffer (Unspecified)
system.caches.controllers1.requestToDir.m_stall_time   726.711260                       # Average number of cycles messages are stalled in this MB (Unspecified)
system.caches.controllers1.responseFromDirOrSibling.m_buf_msgs     0.000784                       # Average number of messages in buffer (Unspecified)
system.caches.controllers1.responseFromDirOrSibling.m_stall_time  3633.498229                       # Average number of cycles messages are stalled in this MB (Unspecified)
system.caches.controllers1.responseToDirOrSibling.m_buf_msgs     0.000008                       # Average number of messages in buffer (Unspecified)
system.caches.controllers1.responseToDirOrSibling.m_stall_time   723.769767                       # Average number of cycles messages are stalled in this MB (Unspecified)
system.caches.controllers2.fullyBusyCycles         9670                       # cycles for which number of transistions == max transitions (Unspecified)
system.caches.controllers2.cacheMemory.m_demand_hits            0                       # Number of cache demand hits (Unspecified)
system.caches.controllers2.cacheMemory.m_demand_misses            0                       # Number of cache demand misses (Unspecified)
system.caches.controllers2.cacheMemory.m_demand_accesses            0                       # Number of cache demand accesses (Unspecified)
system.caches.controllers2.forwardFromDir.m_buf_msgs     0.000229                       # Average number of messages in buffer (Unspecified)
system.caches.controllers2.forwardFromDir.m_stall_time  3614.012548                       # Average number of cycles messages are stalled in this MB (Unspecified)
system.caches.controllers2.mandatoryQueue.m_buf_msgs     0.109490                       # Average number of messages in buffer (Unspecified)
system.caches.controllers2.mandatoryQueue.m_stall_time   865.221619                       # Average number of cycles messages are stalled in this MB (Unspecified)
system.caches.controllers2.power_state.pwrStateResidencyTicks::UNDEFINED   4304956000                       # Cumulative time (in ticks) in various power states (Tick)
system.caches.controllers2.requestToDir.m_buf_msgs     0.000516                       # Average number of messages in buffer (Unspecified)
system.caches.controllers2.requestToDir.m_stall_time   723.907515                       # Average number of cycles messages are stalled in this MB (Unspecified)
system.caches.controllers2.responseFromDirOrSibling.m_buf_msgs     0.000294                       # Average number of messages in buffer (Unspecified)
system.caches.controllers2.responseFromDirOrSibling.m_stall_time  3619.479503                       # Average number of cycles messages are stalled in this MB (Unspecified)
system.caches.controllers2.responseToDirOrSibling.m_buf_msgs     0.000006                       # Average number of messages in buffer (Unspecified)
system.caches.controllers2.responseToDirOrSibling.m_stall_time   722.802277                       # Average number of cycles messages are stalled in this MB (Unspecified)
system.caches.controllers3.cacheMemory.m_demand_hits            0                       # Number of cache demand hits (Unspecified)
system.caches.controllers3.cacheMemory.m_demand_misses            0                       # Number of cache demand misses (Unspecified)
system.caches.controllers3.cacheMemory.m_demand_accesses            0                       # Number of cache demand accesses (Unspecified)
system.caches.controllers3.power_state.pwrStateResidencyTicks::UNDEFINED   4304956000                       # Cumulative time (in ticks) in various power states (Tick)
system.caches.controllers4.forwardToCache.m_buf_msgs     0.002480                       # Average number of messages in buffer (Unspecified)
system.caches.controllers4.forwardToCache.m_stall_time   999.520553                       # Average number of cycles messages are stalled in this MB (Unspecified)
system.caches.controllers4.power_state.pwrStateResidencyTicks::UNDEFINED   4304956000                       # Cumulative time (in ticks) in various power states (Tick)
system.caches.controllers4.requestFromCache.m_buf_msgs     0.005058                       # Average number of messages in buffer (Unspecified)
system.caches.controllers4.requestFromCache.m_stall_time  5000.003484                       # Average number of cycles messages are stalled in this MB (Unspecified)
system.caches.controllers4.requestToMemory.m_buf_msgs     0.002969                       # Average number of messages in buffer (Unspecified)
system.caches.controllers4.requestToMemory.m_stall_time  1000.078746                       # Average number of cycles messages are stalled in this MB (Unspecified)
system.caches.controllers4.responseFromCache.m_buf_msgs     0.000007                       # Average number of messages in buffer (Unspecified)
system.caches.controllers4.responseFromCache.m_stall_time  3633.469193                       # Average number of cycles messages are stalled in this MB (Unspecified)
system.caches.controllers4.responseFromMemory.m_buf_msgs     0.003873                       # Average number of messages in buffer (Unspecified)
system.caches.controllers4.responseFromMemory.m_stall_time   999.984204                       # Average number of cycles messages are stalled in this MB (Unspecified)
system.caches.controllers4.responseToCache.m_buf_msgs     0.002646                       # Average number of messages in buffer (Unspecified)
system.caches.controllers4.responseToCache.m_stall_time   999.983972                       # Average number of cycles messages are stalled in this MB (Unspecified)
system.caches.network.msg_count.Control         61768                       (Unspecified)
system.caches.network.msg_byte.Control         494144                       (Unspecified)
system.caches.network.msg_count.Data            25642                       (Unspecified)
system.caches.network.msg_byte.Data           1846224                       (Unspecified)
system.caches.network.int_link_buffers11.m_buf_msgs     0.000003                       # Average number of messages in buffer (Unspecified)
system.caches.network.int_link_buffers11.m_stall_time  2180.082909                       # Average number of cycles messages are stalled in this MB (Unspecified)
system.caches.network.int_link_buffers14.m_buf_msgs     0.000002                       # Average number of messages in buffer (Unspecified)
system.caches.network.int_link_buffers14.m_stall_time  2171.281426                       # Average number of cycles messages are stalled in this MB (Unspecified)
system.caches.network.int_link_buffers17.m_buf_msgs     0.000004                       # Average number of messages in buffer (Unspecified)
system.caches.network.int_link_buffers17.m_stall_time  2171.307907                       # Average number of cycles messages are stalled in this MB (Unspecified)
system.caches.network.int_link_buffers2.m_buf_msgs     0.000006                       # Average number of messages in buffer (Unspecified)
system.caches.network.int_link_buffers2.m_stall_time  2180.082909                       # Average number of cycles messages are stalled in this MB (Unspecified)
system.caches.network.int_link_buffers21.m_buf_msgs     0.001474                       # Average number of messages in buffer (Unspecified)
system.caches.network.int_link_buffers21.m_stall_time  2180.154455                       # Average number of cycles messages are stalled in this MB (Unspecified)
system.caches.network.int_link_buffers23.m_buf_msgs     0.000002                       # Average number of messages in buffer (Unspecified)
system.caches.network.int_link_buffers23.m_stall_time  2171.307907                       # Average number of cycles messages are stalled in this MB (Unspecified)
system.caches.network.int_link_buffers26.m_buf_msgs     0.000001                       # Average number of messages in buffer (Unspecified)
system.caches.network.int_link_buffers26.m_stall_time    18.967442                       # Average number of cycles messages are stalled in this MB (Unspecified)
system.caches.network.int_link_buffers29.m_buf_msgs     0.000003                       # Average number of messages in buffer (Unspecified)
system.caches.network.int_link_buffers29.m_stall_time  2168.405438                       # Average number of cycles messages are stalled in this MB (Unspecified)
system.caches.network.int_link_buffers33.m_buf_msgs     0.000516                       # Average number of messages in buffer (Unspecified)
system.caches.network.int_link_buffers33.m_stall_time  2171.721151                       # Average number of cycles messages are stalled in this MB (Unspecified)
system.caches.network.int_link_buffers35.m_buf_msgs     0.000001                       # Average number of messages in buffer (Unspecified)
system.caches.network.int_link_buffers35.m_stall_time   295.734731                       # Average number of cycles messages are stalled in this MB (Unspecified)
system.caches.network.int_link_buffers49.m_buf_msgs     0.001492                       # Average number of messages in buffer (Unspecified)
system.caches.network.int_link_buffers49.m_stall_time  2988.872360                       # Average number of cycles messages are stalled in this MB (Unspecified)
system.caches.network.int_link_buffers5.m_buf_msgs     0.000004                       # Average number of messages in buffer (Unspecified)
system.caches.network.int_link_buffers5.m_stall_time  2171.671673                       # Average number of cycles messages are stalled in this MB (Unspecified)
system.caches.network.int_link_buffers50.m_buf_msgs     0.001584                       # Average number of messages in buffer (Unspecified)
system.caches.network.int_link_buffers50.m_stall_time  2999.950522                       # Average number of cycles messages are stalled in this MB (Unspecified)
system.caches.network.int_link_buffers52.m_buf_msgs     0.000701                       # Average number of messages in buffer (Unspecified)
system.caches.network.int_link_buffers52.m_stall_time  2174.168563                       # Average number of cycles messages are stalled in this MB (Unspecified)
system.caches.network.int_link_buffers53.m_buf_msgs     0.000775                       # Average number of messages in buffer (Unspecified)
system.caches.network.int_link_buffers53.m_stall_time  2180.100331                       # Average number of cycles messages are stalled in this MB (Unspecified)
system.caches.network.int_link_buffers55.m_buf_msgs     0.000229                       # Average number of messages in buffer (Unspecified)
system.caches.network.int_link_buffers55.m_stall_time  2168.408922                       # Average number of cycles messages are stalled in this MB (Unspecified)
system.caches.network.int_link_buffers56.m_buf_msgs     0.000287                       # Average number of messages in buffer (Unspecified)
system.caches.network.int_link_buffers56.m_stall_time  2171.689095                       # Average number of cycles messages are stalled in this MB (Unspecified)
system.caches.network.int_link_buffers9.m_buf_msgs     0.003068                       # Average number of messages in buffer (Unspecified)
system.caches.network.int_link_buffers9.m_stall_time  2999.997213                       # Average number of cycles messages are stalled in this MB (Unspecified)
system.caches.network.power_state.pwrStateResidencyTicks::UNDEFINED   4304956000                       # Cumulative time (in ticks) in various power states (Tick)
system.caches.network.routers0.percent_links_utilized     0.207071                       (Unspecified)
system.caches.network.routers0.msg_count.Control::0        12239                       (Unspecified)
system.caches.network.routers0.msg_count.Control::1         6425                       (Unspecified)
system.caches.network.routers0.msg_count.Control::2           27                       (Unspecified)
system.caches.network.routers0.msg_bytes.Control::0        97912                       (Unspecified)
system.caches.network.routers0.msg_bytes.Control::1        51400                       (Unspecified)
system.caches.network.routers0.msg_bytes.Control::2          216                       (Unspecified)
system.caches.network.routers0.msg_count.Data::0          969                       (Unspecified)
system.caches.network.routers0.msg_count.Data::2         6859                       (Unspecified)
system.caches.network.routers0.msg_bytes.Data::0        69768                       (Unspecified)
system.caches.network.routers0.msg_bytes.Data::2       493848                       (Unspecified)
system.caches.network.routers0.port_buffers1.m_buf_msgs     0.001492                       # Average number of messages in buffer (Unspecified)
system.caches.network.routers0.port_buffers1.m_stall_time  3985.162218                       # Average number of cycles messages are stalled in this MB (Unspecified)
system.caches.network.routers0.port_buffers12.m_buf_msgs     0.003068                       # Average number of messages in buffer (Unspecified)
system.caches.network.routers0.port_buffers12.m_stall_time  1999.998606                       # Average number of cycles messages are stalled in this MB (Unspecified)
system.caches.network.routers0.port_buffers14.m_buf_msgs     0.000003                       # Average number of messages in buffer (Unspecified)
system.caches.network.routers0.port_buffers14.m_stall_time  1453.389071                       # Average number of cycles messages are stalled in this MB (Unspecified)
system.caches.network.routers0.port_buffers2.m_buf_msgs     0.001587                       # Average number of messages in buffer (Unspecified)
system.caches.network.routers0.port_buffers2.m_stall_time  3999.933100                       # Average number of cycles messages are stalled in this MB (Unspecified)
system.caches.network.routers0.port_buffers5.m_buf_msgs     0.000006                       # Average number of messages in buffer (Unspecified)
system.caches.network.routers0.port_buffers5.m_stall_time  1453.389071                       # Average number of cycles messages are stalled in this MB (Unspecified)
system.caches.network.routers0.port_buffers8.m_buf_msgs     0.000004                       # Average number of messages in buffer (Unspecified)
system.caches.network.routers0.port_buffers8.m_stall_time  1447.781580                       # Average number of cycles messages are stalled in this MB (Unspecified)
system.caches.network.routers0.power_state.pwrStateResidencyTicks::UNDEFINED   4304956000                       # Cumulative time (in ticks) in various power states (Tick)
system.caches.network.routers0.throttle00.link_utilization     0.788022                       (Unspecified)
system.caches.network.routers0.throttle00.msg_count.Control::1         6425                       (Unspecified)
system.caches.network.routers0.throttle00.msg_count.Control::2            7                       (Unspecified)
system.caches.network.routers0.throttle00.msg_bytes.Control::1        51400                       (Unspecified)
system.caches.network.routers0.throttle00.msg_bytes.Control::2           56                       (Unspecified)
system.caches.network.routers0.throttle00.msg_count.Data::2         6824                       (Unspecified)
system.caches.network.routers0.throttle00.msg_bytes.Data::2       491328                       (Unspecified)
system.caches.network.routers0.throttle01.link_utilization     0.001208                       (Unspecified)
system.caches.network.routers0.throttle01.msg_count.Control::2           14                       (Unspecified)
system.caches.network.routers0.throttle01.msg_bytes.Control::2          112                       (Unspecified)
system.caches.network.routers0.throttle01.msg_count.Data::2           10                       (Unspecified)
system.caches.network.routers0.throttle01.msg_bytes.Data::2          720                       (Unspecified)
system.caches.network.routers0.throttle02.link_utilization     0.001220                       (Unspecified)
system.caches.network.routers0.throttle02.msg_count.Control::2            6                       (Unspecified)
system.caches.network.routers0.throttle02.msg_bytes.Control::2           48                       (Unspecified)
system.caches.network.routers0.throttle02.msg_count.Data::2           11                       (Unspecified)
system.caches.network.routers0.throttle02.msg_bytes.Data::2          792                       (Unspecified)
system.caches.network.routers0.throttle03.link_utilization            0                       (Unspecified)
system.caches.network.routers0.throttle04.link_utilization     0.244904                       (Unspecified)
system.caches.network.routers0.throttle04.msg_count.Control::0        12239                       (Unspecified)
system.caches.network.routers0.throttle04.msg_bytes.Control::0        97912                       (Unspecified)
system.caches.network.routers0.throttle04.msg_count.Data::0          969                       (Unspecified)
system.caches.network.routers0.throttle04.msg_count.Data::2           14                       (Unspecified)
system.caches.network.routers0.throttle04.msg_bytes.Data::0        69768                       (Unspecified)
system.caches.network.routers0.throttle04.msg_bytes.Data::2         1008                       (Unspecified)
system.caches.network.routers1.percent_links_utilized     0.097741                       (Unspecified)
system.caches.network.routers1.msg_count.Control::0         6060                       (Unspecified)
system.caches.network.routers1.msg_count.Control::1         3016                       (Unspecified)
system.caches.network.routers1.msg_count.Control::2           34                       (Unspecified)
system.caches.network.routers1.msg_bytes.Control::0        48480                       (Unspecified)
system.caches.network.routers1.msg_bytes.Control::1        24128                       (Unspecified)
[...]
system.mem_ctrl.rdPerTurnAround::160-191            6      7.23%     83.13% # Reads before turning the bus around for writes (Count)
system.mem_ctrl.rdPerTurnAround::192-223            2      2.41%     85.54% # Reads before turning the bus around for writes (Count)
system.mem_ctrl.rdPerTurnAround::224-255            1      1.20%     86.75% # Reads before turning the bus around for writes (Count)
system.mem_ctrl.rdPerTurnAround::256-287            2      2.41%     89.16% # Reads before turning the bus around for writes (Count)
system.mem_ctrl.rdPerTurnAround::288-319            3      3.61%     92.77% # Reads before turning the bus around for writes (Count)
system.mem_ctrl.rdPerTurnAround::320-351            2      2.41%     95.18% # Reads before turning the bus around for writes (Count)
system.mem_ctrl.rdPerTurnAround::352-383            1      1.20%     96.39% # Reads before turning the bus around for writes (Count)
system.mem_ctrl.rdPerTurnAround::416-447            1      1.20%     97.59% # Reads before turning the bus around for writes (Count)
system.mem_ctrl.rdPerTurnAround::448-479            1      1.20%     98.80% # Reads before turning the bus around for writes (Count)
system.mem_ctrl.rdPerTurnAround::928-959            1      1.20%    100.00% # Reads before turning the bus around for writes (Count)
system.mem_ctrl.rdPerTurnAround::total             83                       # Reads before turning the bus around for writes (Count)
system.mem_ctrl.wrPerTurnAround::samples           83                       # Writes before turning the bus around for reads (Count)
system.mem_ctrl.wrPerTurnAround::mean       16.024096                       # Writes before turning the bus around for reads (Count)
system.mem_ctrl.wrPerTurnAround::gmean      16.022721                       # Writes before turning the bus around for reads (Count)
system.mem_ctrl.wrPerTurnAround::stdev       0.219529                       # Writes before turning the bus around for reads (Count)
system.mem_ctrl.wrPerTurnAround::16                82     98.80%     98.80% # Writes before turning the bus around for reads (Count)
system.mem_ctrl.wrPerTurnAround::18                 1      1.20%    100.00% # Writes before turning the bus around for reads (Count)
system.mem_ctrl.wrPerTurnAround::total             83                       # Writes before turning the bus around for reads (Count)
system.mem_ctrl.bytesReadWrQ                    22656                       # Total number of bytes read from write queue (Byte)
system.mem_ctrl.bytesReadSys                   728896                       # Total read bytes from the system interface side (Byte)
system.mem_ctrl.bytesWrittenSys                 88832                       # Total written bytes from the system interface side (Byte)
system.mem_ctrl.avgRdBWSys               169315551.65720624                       # Average system read bandwidth in Byte/s ((Byte/Second))
system.mem_ctrl.avgWrBWSys               20634821.81931708                       # Average system write bandwidth in Byte/s ((Byte/Second))
system.mem_ctrl.totGap                     4304897000                       # Total gap between requests (Tick)
system.mem_ctrl.avgGap                      336925.49                       # Average gap between requests ((Tick/Count))
system.mem_ctrl.requestorReadBytes::caches.controllers4       706240                       # Per-requestor bytes read from memory (Byte)
system.mem_ctrl.requestorWriteBytes::caches.controllers4        85120                       # Per-requestor bytes write to memory (Byte)
system.mem_ctrl.requestorReadRate::caches.controllers4 164052780.098100870848                       # Per-requestor bytes read from memory rate ((Byte/Second))
system.mem_ctrl.requestorWriteRate::caches.controllers4 19772559.812458012253                       # Per-requestor bytes write to memory rate ((Byte/Second))
system.mem_ctrl.requestorReadAccesses::caches.controllers4        11389                       # Per-requestor read serviced memory accesses (Count)
system.mem_ctrl.requestorWriteAccesses::caches.controllers4         1388                       # Per-requestor write serviced memory accesses (Count)
system.mem_ctrl.requestorReadTotalLat::caches.controllers4    316194250                       # Per-requestor read total memory access latency (Tick)
system.mem_ctrl.requestorWriteTotalLat::caches.controllers4 113793048000                       # Per-requestor write total memory access latency (Tick)
system.mem_ctrl.requestorReadAvgLat::caches.controllers4     27763.13                       # Per-requestor read average memory access latency ((Tick/Count))
system.mem_ctrl.requestorWriteAvgLat::caches.controllers4  81983463.98                       # Per-requestor write average memory access latency ((Tick/Count))
system.mem_ctrl.dram.bytesRead::caches.controllers4       728896                       # Number of bytes read from this memory (Byte)
system.mem_ctrl.dram.bytesRead::total          728896                       # Number of bytes read from this memory (Byte)
system.mem_ctrl.dram.bytesWritten::caches.controllers4        88832                       # Number of bytes written to this memory (Byte)
system.mem_ctrl.dram.bytesWritten::total        88832                       # Number of bytes written to this memory (Byte)
system.mem_ctrl.dram.numReads::caches.controllers4        11389                       # Number of read requests responded to by this memory (Count)
system.mem_ctrl.dram.numReads::total            11389                       # Number of read requests responded to by this memory (Count)
system.mem_ctrl.dram.numWrites::caches.controllers4         1388                       # Number of write requests responded to by this memory (Count)
system.mem_ctrl.dram.numWrites::total            1388                       # Number of write requests responded to by this memory (Count)
system.mem_ctrl.dram.bwRead::caches.controllers4    169315552                       # Total read bandwidth from this memory ((Byte/Second))
system.mem_ctrl.dram.bwRead::total          169315552                       # Total read bandwidth from this memory ((Byte/Second))
system.mem_ctrl.dram.bwWrite::caches.controllers4     20634822                       # Write bandwidth from this memory ((Byte/Second))
system.mem_ctrl.dram.bwWrite::total          20634822                       # Write bandwidth from this memory ((Byte/Second))
system.mem_ctrl.dram.bwTotal::caches.controllers4    189950373                       # Total bandwidth to/from this memory ((Byte/Second))
system.mem_ctrl.dram.bwTotal::total         189950373                       # Total bandwidth to/from this memory ((Byte/Second))
system.mem_ctrl.dram.readBursts                 11035                       # Number of DRAM read bursts (Count)
system.mem_ctrl.dram.writeBursts                 1330                       # Number of DRAM write bursts (Count)
system.mem_ctrl.dram.perBankRdBursts::0           860                       # Per bank write bursts (Count)
system.mem_ctrl.dram.perBankRdBursts::1           682                       # Per bank write bursts (Count)
system.mem_ctrl.dram.perBankRdBursts::2           536                       # Per bank write bursts (Count)
system.mem_ctrl.dram.perBankRdBursts::3           780                       # Per bank write bursts (Count)
system.mem_ctrl.dram.perBankRdBursts::4           700                       # Per bank write bursts (Count)
system.mem_ctrl.dram.perBankRdBursts::5           498                       # Per bank write bursts (Count)
system.mem_ctrl.dram.perBankRdBursts::6           414                       # Per bank write bursts (Count)
system.mem_ctrl.dram.perBankRdBursts::7          1103                       # Per bank write bursts (Count)
system.mem_ctrl.dram.perBankRdBursts::8          1171                       # Per bank write bursts (Count)
system.mem_ctrl.dram.perBankRdBursts::9           777                       # Per bank write bursts (Count)
system.mem_ctrl.dram.perBankRdBursts::10          505                       # Per bank write bursts (Count)
system.mem_ctrl.dram.perBankRdBursts::11          460                       # Per bank write bursts (Count)
system.mem_ctrl.dram.perBankRdBursts::12          407                       # Per bank write bursts (Count)
system.mem_ctrl.dram.perBankRdBursts::13          281                       # Per bank write bursts (Count)
system.mem_ctrl.dram.perBankRdBursts::14         1086                       # Per bank write bursts (Count)
system.mem_ctrl.dram.perBankRdBursts::15          775                       # Per bank write bursts (Count)
system.mem_ctrl.dram.perBankWrBursts::0            12                       # Per bank write bursts (Count)
system.mem_ctrl.dram.perBankWrBursts::1             5                       # Per bank write bursts (Count)
system.mem_ctrl.dram.perBankWrBursts::2            62                       # Per bank write bursts (Count)
system.mem_ctrl.dram.perBankWrBursts::3           222                       # Per bank write bursts (Count)
system.mem_ctrl.dram.perBankWrBursts::4             0                       # Per bank write bursts (Count)
system.mem_ctrl.dram.perBankWrBursts::5             3                       # Per bank write bursts (Count)
system.mem_ctrl.dram.perBankWrBursts::6            51                       # Per bank write bursts (Count)
system.mem_ctrl.dram.perBankWrBursts::7           256                       # Per bank write bursts (Count)
system.mem_ctrl.dram.perBankWrBursts::8           245                       # Per bank write bursts (Count)
system.mem_ctrl.dram.perBankWrBursts::9            64                       # Per bank write bursts (Count)
system.mem_ctrl.dram.perBankWrBursts::10           53                       # Per bank write bursts (Count)
system.mem_ctrl.dram.perBankWrBursts::11           56                       # Per bank write bursts (Count)
system.mem_ctrl.dram.perBankWrBursts::12            0                       # Per bank write bursts (Count)
system.mem_ctrl.dram.perBankWrBursts::13            0                       # Per bank write bursts (Count)
system.mem_ctrl.dram.perBankWrBursts::14          190                       # Per bank write bursts (Count)
system.mem_ctrl.dram.perBankWrBursts::15          111                       # Per bank write bursts (Count)
system.mem_ctrl.dram.totQLat                109288000                       # Total ticks spent queuing (Tick)
system.mem_ctrl.dram.totBusLat               55175000                       # Total ticks spent in databus transfers (Tick)
system.mem_ctrl.dram.totMemAccLat           316194250                       # Total ticks spent from burst creation until serviced by the DRAM (Tick)
system.mem_ctrl.dram.avgQLat                  9903.76                       # Average queueing delay per DRAM burst ((Tick/Count))
system.mem_ctrl.dram.avgBusLat                5000.00                       # Average bus latency per DRAM burst ((Tick/Count))
system.mem_ctrl.dram.avgMemAccLat            28653.76                       # Average memory access latency per DRAM burst ((Tick/Count))
system.mem_ctrl.dram.readRowHits                 7691                       # Number of row buffer hits during reads (Count)
system.mem_ctrl.dram.writeRowHits                1153                       # Number of row buffer hits during writes (Count)
system.mem_ctrl.dram.readRowHitRate             69.70                       # Row buffer hit rate for reads (Ratio)
system.mem_ctrl.dram.writeRowHitRate            86.69                       # Row buffer hit rate for writes (Ratio)
system.mem_ctrl.dram.bytesPerActivate::samples         3510                       # Bytes accessed per row activation (Byte)
system.mem_ctrl.dram.bytesPerActivate::mean   224.492308                       # Bytes accessed per row activation (Byte)
system.mem_ctrl.dram.bytesPerActivate::gmean   147.264285                       # Bytes accessed per row activation (Byte)
system.mem_ctrl.dram.bytesPerActivate::stdev   243.169598                       # Bytes accessed per row activation (Byte)
system.mem_ctrl.dram.bytesPerActivate::0-127         1425     40.60%     40.60% # Bytes accessed per row activation (Byte)
system.mem_ctrl.dram.bytesPerActivate::128-255         1027     29.26%     69.86% # Bytes accessed per row activation (Byte)
system.mem_ctrl.dram.bytesPerActivate::256-383          420     11.97%     81.82% # Bytes accessed per row activation (Byte)
system.mem_ctrl.dram.bytesPerActivate::384-511          223      6.35%     88.18% # Bytes accessed per row activation (Byte)
system.mem_ctrl.dram.bytesPerActivate::512-639          101      2.88%     91.05% # Bytes accessed per row activation (Byte)
system.mem_ctrl.dram.bytesPerActivate::640-767           81      2.31%     93.36% # Bytes accessed per row activation (Byte)
system.mem_ctrl.dram.bytesPerActivate::768-895           47      1.34%     94.70% # Bytes accessed per row activation (Byte)
system.mem_ctrl.dram.bytesPerActivate::896-1023           41      1.17%     95.87% # Bytes accessed per row activation (Byte)
system.mem_ctrl.dram.bytesPerActivate::1024-1151          145      4.13%    100.00% # Bytes accessed per row activation (Byte)
system.mem_ctrl.dram.bytesPerActivate::total         3510                       # Bytes accessed per row activation (Byte)
system.mem_ctrl.dram.bytesRead                 706240                       # Total number of bytes read from DRAM (Byte)
system.mem_ctrl.dram.bytesWritten               85120                       # Total number of bytes written to DRAM (Byte)
system.mem_ctrl.dram.avgRdBW               164.052780                       # Average DRAM read bandwidth in MiBytes/s ((Byte/Second))
system.mem_ctrl.dram.avgWrBW                19.772560                       # Average DRAM write bandwidth in MiBytes/s ((Byte/Second))
system.mem_ctrl.dram.peakBW                  12800.00                       # Theoretical peak bandwidth in MiByte/s ((Byte/Second))
system.mem_ctrl.dram.busUtil                     1.44                       # Data bus utilization in percentage (Ratio)
system.mem_ctrl.dram.busUtilRead                 1.28                       # Data bus utilization in percentage for reads (Ratio)
system.mem_ctrl.dram.busUtilWrite                0.15                       # Data bus utilization in percentage for writes (Ratio)
system.mem_ctrl.dram.pageHitRate                71.52                       # Row buffer hit rate, read and write combined (Ratio)
system.mem_ctrl.dram.power_state.pwrStateResidencyTicks::UNDEFINED   4304956000                       # Cumulative time (in ticks) in various power states (Tick)
system.mem_ctrl.dram.rank0.actEnergy         14130060                       # Energy for activate commands per rank (pJ) (Joule)
system.mem_ctrl.dram.rank0.preEnergy          7495125                       # Energy for precharge commands per rank (pJ) (Joule)
system.mem_ctrl.dram.rank0.readEnergy        39791220                       # Energy for read commands per rank (pJ) (Joule)
system.mem_ctrl.dram.rank0.writeEnergy        3189420                       # Energy for write commands per rank (pJ) (Joule)
system.mem_ctrl.dram.rank0.refreshEnergy 339281280.000000                       # Energy for refresh commands per rank (pJ) (Joule)
system.mem_ctrl.dram.rank0.actBackEnergy    842625870                       # Energy for active background per rank (pJ) (Joule)
system.mem_ctrl.dram.rank0.preBackEnergy    943523520                       # Energy for precharge background per rank (pJ) (Joule)
system.mem_ctrl.dram.rank0.actPowerDownEnergy            0                       # Energy for active power-down per rank (pJ) (Joule)
system.mem_ctrl.dram.rank0.prePowerDownEnergy            0                       # Energy for precharge power-down per rank (pJ) (Joule)
system.mem_ctrl.dram.rank0.selfRefreshEnergy            0                       # Energy for self refresh per rank (pJ) (Joule)
system.mem_ctrl.dram.rank0.totalEnergy     2190036495                       # Total energy per rank (pJ) (Joule)
system.mem_ctrl.dram.rank0.averagePower    508.724478                       # Core power per rank (mW) (Watt)
system.mem_ctrl.dram.rank0.totalIdleTime            0                       # Total Idle time Per DRAM Rank (Tick)
system.mem_ctrl.dram.rank0.pwrStateTime::IDLE   2445499500                       # Time in different power states (Tick)
system.mem_ctrl.dram.rank0.pwrStateTime::REF    143520000                       # Time in different power states (Tick)
system.mem_ctrl.dram.rank0.pwrStateTime::SREF            0                       # Time in different power states (Tick)
system.mem_ctrl.dram.rank0.pwrStateTime::PRE_PDN            0                       # Time in different power states (Tick)
system.mem_ctrl.dram.rank0.pwrStateTime::ACT   1715936500                       # Time in different power states (Tick)
system.mem_ctrl.dram.rank0.pwrStateTime::ACT_PDN            0                       # Time in different power states (Tick)
system.mem_ctrl.dram.rank1.actEnergy         11009880                       # Energy for activate commands per rank (pJ) (Joule)
system.mem_ctrl.dram.rank1.preEnergy          5825325                       # Energy for precharge commands per rank (pJ) (Joule)
system.mem_ctrl.dram.rank1.readEnergy        38998680                       # Energy for read commands per rank (pJ) (Joule)
system.mem_ctrl.dram.rank1.writeEnergy        3753180                       # Energy for write commands per rank (pJ) (Joule)
system.mem_ctrl.dram.rank1.refreshEnergy 339281280.000000                       # Energy for refresh commands per rank (pJ) (Joule)
system.mem_ctrl.dram.rank1.actBackEnergy    804049980                       # Energy for active background per rank (pJ) (Joule)
system.mem_ctrl.dram.rank1.preBackEnergy    976008480                       # Energy for precharge background per rank (pJ) (Joule)
system.mem_ctrl.dram.rank1.actPowerDownEnergy            0                       # Energy for active power-down per rank (pJ) (Joule)
system.mem_ctrl.dram.rank1.prePowerDownEnergy            0                       # Energy for precharge power-down per rank (pJ) (Joule)
system.mem_ctrl.dram.rank1.selfRefreshEnergy            0                       # Energy for self refresh per rank (pJ) (Joule)
system.mem_ctrl.dram.rank1.totalEnergy     2178926805                       # Total energy per rank (pJ) (Joule)
system.mem_ctrl.dram.rank1.averagePower    506.143804                       # Core power per rank (mW) (Watt)
system.mem_ctrl.dram.rank1.totalIdleTime            0                       # Total Idle time Per DRAM Rank (Tick)
system.mem_ctrl.dram.rank1.pwrStateTime::IDLE   2530119000                       # Time in different power states (Tick)
system.mem_ctrl.dram.rank1.pwrStateTime::REF    143520000                       # Time in different power states (Tick)
system.mem_ctrl.dram.rank1.pwrStateTime::SREF            0                       # Time in different power states (Tick)
system.mem_ctrl.dram.rank1.pwrStateTime::PRE_PDN            0                       # Time in different power states (Tick)
system.mem_ctrl.dram.rank1.pwrStateTime::ACT   1631317000                       # Time in different power states (Tick)
system.mem_ctrl.dram.rank1.pwrStateTime::ACT_PDN            0                       # Time in different power states (Tick)
system.mem_ctrl.power_state.pwrStateResidencyTicks::UNDEFINED   4304956000                       # Cumulative time (in ticks) in various power states (Tick)
system.workload.inst.arm                            0                       # number of arm instructions executed (Count)
system.workload.inst.quiesce                        0                       # number of quiesce instructions executed (Count)

---------- End Simulation Statistics   ----------
