
---------- Begin Simulation Statistics ----------
simSeconds                                   0.004464                       # Number of seconds simulated (Second)
simTicks                                   4463542000                       # Number of ticks simulated (Tick)
finalTick                                  4463542000                       # Number of ticks from beginning of simulation (restored from checkpoints and never reset) (Tick)
simFreq                                  1000000000000                       # The number of ticks per simulated second ((Tick/Second))
hostSeconds                                      4.54                       # Real time elapsed on the host (Second)
hostTickRate                                983563755                       # The number of ticks simulated per host second (ticks/s) ((Tick/Second))
hostMemory                                     789300                       # Number of bytes of host memory used (Byte)
simInsts                                      1224189                       # Number of instructions simulated (Count)
simOps                                        2004043                       # Number of ops (including micro ops) simulated (Count)
hostInstRate                                   269749                       # Simulator instruction rate (inst/s) ((Count/Second))
hostOpRate                                     441588                       # Simulator op (including micro ops) rate (op/s) ((Count/Second))
system.caches.m_outstandReqHistSeqr::bucket_size            1                       (Unspecified)
system.caches.m_outstandReqHistSeqr::max_bucket            9                       (Unspecified)
system.caches.m_outstandReqHistSeqr::samples      2036366                       (Unspecified)
system.caches.m_outstandReqHistSeqr::mean     1.000007                       (Unspecified)
system.caches.m_outstandReqHistSeqr::gmean     1.000005                       (Unspecified)
system.caches.m_outstandReqHistSeqr::stdev     0.002622                       (Unspecified)
system.caches.m_outstandReqHistSeqr      |           0      0.00%      0.00% |     2036352    100.00%    100.00% |          14      0.00%    100.00% |           0      0.00%    100.00% |           0      0.00%    100.00% |           0      0.00%    100.00% |           0      0.00%    100.00% |           0      0.00%    100.00% |           0      0.00%    100.00% |           0      0.00%    100.00% (Unspecified)
system.caches.m_outstandReqHistSeqr::total      2036366                       (Unspecified)
system.caches.m_latencyHistSeqr::bucket_size           64                       (Unspecified)
system.caches.m_latencyHistSeqr::max_bucket          639                       (Unspecified)
system.caches.m_latencyHistSeqr::samples      2036366                       (Unspecified)
system.caches.m_latencyHistSeqr::mean        1.191968                       (Unspecified)
system.caches.m_latencyHistSeqr::gmean       1.011853                       (Unspecified)
system.caches.m_latencyHistSeqr::stdev       3.977396                       (Unspecified)
system.caches.m_latencyHistSeqr          |     2034929     99.93%     99.93% |        1289      0.06%     99.99% |          53      0.00%    100.00% |          34      0.00%    100.00% |          38      0.00%    100.00% |          22      0.00%    100.00% |           0      0.00%    100.00% |           1      0.00%    100.00% |           0      0.00%    100.00% |           0      0.00%    100.00% (Unspecified)
system.caches.m_latencyHistSeqr::total        2036366                       (Unspecified)
system.caches.m_hitLatencyHistSeqr::bucket_size            1                       (Unspecified)
system.caches.m_hitLatencyHistSeqr::max_bucket            9                       (Unspecified)
system.caches.m_hitLatencyHistSeqr::samples      2030639                       (Unspecified)
system.caches.m_hitLatencyHistSeqr::mean            1                       (Unspecified)
system.caches.m_hitLatencyHistSeqr::gmean            1                       (Unspecified)
system.caches.m_hitLatencyHistSeqr       |           0      0.00%      0.00% |     2030639    100.00%    100.00% |           0      0.00%    100.00% |           0      0.00%    100.00% |           0      0.00%    100.00% |           0      0.00%    100.00% |           0      0.00%    100.00% |           0      0.00%    100.00% |           0      0.00%    100.00% |           0      0.00%    100.00% (Unspecified)
system.caches.m_hitLatencyHistSeqr::total      2030639                       (Unspecified)
system.caches.m_missLatencyHistSeqr::bucket_size           64                       (Unspecified)
system.caches.m_missLatencyHistSeqr::max_bucket          639                       (Unspecified)
system.caches.m_missLatencyHistSeqr::samples         5727                       (Unspecified)
system.caches.m_missLatencyHistSeqr::mean    69.258600                       (Unspecified)
system.caches.m_missLatencyHistSeqr::gmean    66.022569                       (Unspecified)
system.caches.m_missLatencyHistSeqr::stdev    31.290326                       (Unspecified)
system.caches.m_missLatencyHistSeqr      |        4290     74.91%     74.91% |        1289     22.51%     97.42% |          53      0.93%     98.34% |          34      0.59%     98.93% |          38      0.66%     99.60% |          22      0.38%     99.98% |           0      0.00%     99.98% |           1      0.02%    100.00% |           0      0.00%    100.00% |           0      0.00%    100.00% (Unspecified)
system.caches.m_missLatencyHistSeqr::total         5727                       (Unspecified)
system.caches.L1Cache_Controller.Load    |     1868121    100.00%    100.00% |           0      0.00%    100.00% |           0      0.00%    100.00% |           0      0.00%    100.00% (Unspecified)
system.caches.L1Cache_Controller.Load::total      1868121                       (Unspecified)
system.caches.L1Cache_Controller.Store   |      168245    100.00%    100.00% |           0      0.00%    100.00% |           0      0.00%    100.00% |           0      0.00%    100.00% (Unspecified)
system.caches.L1Cache_Controller.Store::total       168245                       (Unspecified)
system.caches.L1Cache_Controller.Replacement |     1713595    100.00%    100.00% |           0      0.00%    100.00% |           0      0.00%    100.00% |           0      0.00%    100.00% (Unspecified)
system.caches.L1Cache_Controller.Replacement::total      1713595                       (Unspecified)
system.caches.L1Cache_Controller.PutAck  |        5355    100.00%    100.00% |           0      0.00%    100.00% |           0      0.00%    100.00% |           0      0.00%    100.00% (Unspecified)
system.caches.L1Cache_Controller.PutAck::total         5355                       (Unspecified)
system.caches.L1Cache_Controller.DataDirNoAcks |        5727    100.00%    100.00% |           0      0.00%    100.00% |           0      0.00%    100.00% |           0      0.00%    100.00% (Unspecified)
system.caches.L1Cache_Controller.DataDirNoAcks::total         5727                       (Unspecified)
system.caches.L1Cache_Controller.I.Load  |        4895    100.00%    100.00% |           0      0.00%    100.00% |           0      0.00%    100.00% |           0      0.00%    100.00% (Unspecified)
system.caches.L1Cache_Controller.I.Load::total         4895                       (Unspecified)
system.caches.L1Cache_Controller.I.Store |         716    100.00%    100.00% |           0      0.00%    100.00% |           0      0.00%    100.00% |           0      0.00%    100.00% (Unspecified)
system.caches.L1Cache_Controller.I.Store::total          716                       (Unspecified)
system.caches.L1Cache_Controller.IS_D.DataDirNoAcks |        4895    100.00%    100.00% |           0      0.00%    100.00% |           0      0.00%    100.00% |           0      0.00%    100.00% (Unspecified)
system.caches.L1Cache_Controller.IS_D.DataDirNoAcks::total         4895                       (Unspecified)
system.caches.L1Cache_Controller.IM_AD.DataDirNoAcks |         716    100.00%    100.00% |           0      0.00%    100.00% |           0      0.00%    100.00% |           0      0.00%    100.00% (Unspecified)
system.caches.L1Cache_Controller.IM_AD.DataDirNoAcks::total          716                       (Unspecified)
system.caches.L1Cache_Controller.S.Load  |     1566330    100.00%    100.00% |           0      0.00%    100.00% |           0      0.00%    100.00% |           0      0.00%    100.00% (Unspecified)
system.caches.L1Cache_Controller.S.Load::total      1566330                       (Unspecified)
system.caches.L1Cache_Controller.S.Store |         116    100.00%    100.00% |           0      0.00%    100.00% |           0      0.00%    100.00% |           0      0.00%    100.00% (Unspecified)
system.caches.L1Cache_Controller.S.Store::total          116                       (Unspecified)
system.caches.L1Cache_Controller.S.Replacement |        4568    100.00%    100.00% |           0      0.00%    100.00% |           0      0.00%    100.00% |           0      0.00%    100.00% (Unspecified)
system.caches.L1Cache_Controller.S.Replacement::total         4568                       (Unspecified)
system.caches.L1Cache_Controller.SM_AD.DataDirNoAcks |         116    100.00%    100.00% |           0      0.00%    100.00% |           0      0.00%    100.00% |           0      0.00%    100.00% (Unspecified)
system.caches.L1Cache_Controller.SM_AD.DataDirNoAcks::total          116                       (Unspecified)
system.caches.L1Cache_Controller.M.Load  |      296896    100.00%    100.00% |           0      0.00%    100.00% |           0      0.00%    100.00% |           0      0.00%    100.00% (Unspecified)
system.caches.L1Cache_Controller.M.Load::total       296896                       (Unspecified)
system.caches.L1Cache_Controller.M.Store |      167413    100.00%    100.00% |           0      0.00%    100.00% |           0      0.00%    100.00% |           0      0.00%    100.00% (Unspecified)
system.caches.L1Cache_Controller.M.Store::total       167413                       (Unspecified)
system.caches.L1Cache_Controller.M.Replacement |         787    100.00%    100.00% |           0      0.00%    100.00% |           0      0.00%    100.00% |           0      0.00%    100.00% (Unspecified)
system.caches.L1Cache_Controller.M.Replacement::total          787                       (Unspecified)
system.caches.L1Cache_Controller.MI_A.Replacement |      251053    100.00%    100.00% |           0      0.00%    100.00% |           0      0.00%    100.00% |           0      0.00%    100.00% (Unspecified)
system.caches.L1Cache_Controller.MI_A.Replacement::total       251053                       (Unspecified)
system.caches.L1Cache_Controller.MI_A.PutAck |         787    100.00%    100.00% |           0      0.00%    100.00% |           0      0.00%    100.00% |           0      0.00%    100.00% (Unspecified)
system.caches.L1Cache_Controller.MI_A.PutAck::total          787                       (Unspecified)
system.caches.L1Cache_Controller.SI_A.Replacement |     1457187    100.00%    100.00% |           0      0.00%    100.00% |           0      0.00%    100.00% |           0      0.00%    100.00% (Unspecified)
system.caches.L1Cache_Controller.SI_A.Replacement::total      1457187                       (Unspecified)
system.caches.L1Cache_Controller.SI_A.PutAck |        4568    100.00%    100.00% |           0      0.00%    100.00% |           0      0.00%    100.00% |           0      0.00%    100.00% (Unspecified)
system.caches.L1Cache_Controller.SI_A.PutAck::total         4568                       (Unspecified)
system.caches.Directory_Controller.GetS          4895      0.00%      0.00% (Unspecified)
system.caches.Directory_Controller.GetM           832      0.00%      0.00% (Unspecified)
system.caches.Directory_Controller.PutSLast         4568      0.00%      0.00% (Unspecified)
system.caches.Directory_Controller.PutMOwner          787      0.00%      0.00% (Unspecified)
system.caches.Directory_Controller.MemData         5727      0.00%      0.00% (Unspecified)
system.caches.Directory_Controller.MemAck          787      0.00%      0.00% (Unspecified)
system.caches.Directory_Controller.I.GetS         4895      0.00%      0.00% (Unspecified)
system.caches.Directory_Controller.I.GetM          716      0.00%      0.00% (Unspecified)
system.caches.Directory_Controller.S.GetM          116      0.00%      0.00% (Unspecified)
system.caches.Directory_Controller.S.PutSLast         4568      0.00%      0.00% (Unspecified)
system.caches.Directory_Controller.M.PutMOwner          787      0.00%      0.00% (Unspecified)
system.caches.Directory_Controller.S_m.MemData         4895      0.00%      0.00% (Unspecified)
system.caches.Directory_Controller.M_m.MemData          832      0.00%      0.00% (Unspecified)
system.caches.Directory_Controller.MI_m.MemAck          787      0.00%      0.00% (Unspecified)
system.caches.MachineType.Directory.miss_mach_latency_hist_seqr::bucket_size           64                       (Unspecified)
system.caches.MachineType.Directory.miss_mach_latency_hist_seqr::max_bucket          639                       (Unspecified)
system.caches.MachineType.Directory.miss_mach_latency_hist_seqr::samples         5727                       (Unspecified)
system.caches.MachineType.Directory.miss_mach_latency_hist_seqr::mean    69.258600                       (Unspecified)
system.caches.MachineType.Directory.miss_mach_latency_hist_seqr::gmean    66.022569                       (Unspecified)
system.caches.MachineType.Directory.miss_mach_latency_hist_seqr::stdev    31.290326                       (Unspecified)
system.caches.MachineType.Directory.miss_mach_latency_hist_seqr |        4290     74.91%     74.91% |        1289     22.51%     97.42% |          53      0.93%     98.34% |          34      0.59%     98.93% |          38      0.66%     99.60% |          22      0.38%     99.98% |           0      0.00%     99.98% |           1      0.02%    100.00% |           0      0.00%    100.00% |           0      0.00%    100.00% (Unspecified)
system.caches.MachineType.Directory.miss_mach_latency_hist_seqr::total         5727                       (Unspecified)
system.caches.MachineType.Directory.miss_latency_hist_seqr.issue_to_initial_request::bucket_size            1                       (Unspecified)
system.caches.MachineType.Directory.miss_latency_hist_seqr.issue_to_initial_request::max_bucket            9                       (Unspecified)
system.caches.MachineType.Directory.miss_latency_hist_seqr.issue_to_initial_request::samples            1                       (Unspecified)
system.caches.MachineType.Directory.miss_latency_hist_seqr.issue_to_initial_request::stdev          nan                       (Unspecified)
system.caches.MachineType.Directory.miss_latency_hist_seqr.issue_to_initial_request |           1    100.00%    100.00% |           0      0.00%    100.00% |           0      0.00%    100.00% |           0      0.00%    100.00% |           0      0.00%    100.00% |           0      0.00%    100.00% |           0      0.00%    100.00% |           0      0.00%    100.00% |           0      0.00%    100.00% |           0      0.00%    100.00% (Unspecified)
system.caches.MachineType.Directory.miss_latency_hist_seqr.issue_to_initial_request::total            1                       (Unspecified)
system.caches.MachineType.Directory.miss_latency_hist_seqr.initial_to_forward::bucket_size            1                       (Unspecified)
system.caches.MachineType.Directory.miss_latency_hist_seqr.initial_to_forward::max_bucket            9                       (Unspecified)
system.caches.MachineType.Directory.miss_latency_hist_seqr.initial_to_forward::samples            1                       (Unspecified)
system.caches.MachineType.Directory.miss_latency_hist_seqr.initial_to_forward::stdev          nan                       (Unspecified)
system.caches.MachineType.Directory.miss_latency_hist_seqr.initial_to_forward |           1    100.00%    100.00% |           0      0.00%    100.00% |           0      0.00%    100.00% |           0      0.00%    100.00% |           0      0.00%    100.00% |           0      0.00%    100.00% |           0      0.00%    100.00% |           0      0.00%    100.00% |           0      0.00%    100.00% |           0      0.00%    100.00% (Unspecified)
system.caches.MachineType.Directory.miss_latency_hist_seqr.initial_to_forward::total            1                       (Unspecified)
system.caches.MachineType.Directory.miss_latency_hist_seqr.forward_to_first_response::bucket_size            1                       (Unspecified)
system.caches.MachineType.Directory.miss_latency_hist_seqr.forward_to_first_response::max_bucket            9                       (Unspecified)
system.caches.MachineType.Directory.miss_latency_hist_seqr.forward_to_first_response::samples            1                       (Unspecified)
system.caches.MachineType.Directory.miss_latency_hist_seqr.forward_to_first_response::stdev          nan                       (Unspecified)
system.caches.MachineType.Directory.miss_latency_hist_seqr.forward_to_first_response |           1    100.00%    100.00% |           0      0.00%    100.00% |           0      0.00%    100.00% |           0      0.00%    100.00% |           0      0.00%    100.00% |           0      0.00%    100.00% |           0      0.00%    100.00% |           0      0.00%    100.00% |           0      0.00%    100.00% |           0      0.00%    100.00% (Unspecified)
system.caches.MachineType.Directory.miss_latency_hist_seqr.forward_to_first_response::total            1                       (Unspecified)
system.caches.MachineType.Directory.miss_latency_hist_seqr.first_response_to_completion::bucket_size            8                       (Unspecified)
system.caches.MachineType.Directory.miss_latency_hist_seqr.first_response_to_completion::max_bucket           79                       (Unspecified)
system.caches.MachineType.Directory.miss_latency_hist_seqr.first_response_to_completion::samples            1                       (Unspecified)
system.caches.MachineType.Directory.miss_latency_hist_seqr.first_response_to_completion::mean           73                       (Unspecified)
system.caches.MachineType.Directory.miss_latency_hist_seqr.first_response_to_completion::gmean    73.000000                       (Unspecified)
system.caches.MachineType.Directory.miss_latency_hist_seqr.first_response_to_completion::stdev          nan                       (Unspecified)
system.caches.MachineType.Directory.miss_latency_hist_seqr.first_response_to_completion |           0      0.00%      0.00% |           0      0.00%      0.00% |           0      0.00%      0.00% |           0      0.00%      0.00% |           0      0.00%      0.00% |           0      0.00%      0.00% |           0      0.00%      0.00% |           0      0.00%      0.00% |           0      0.00%      0.00% |           1    100.00%    100.00% (Unspecified)
system.caches.MachineType.Directory.miss_latency_hist_seqr.first_response_to_completion::total            1                       (Unspecified)
system.caches.MachineType.Directory.incomplete_times_seqr         5726                       (Unspecified)
system.caches.RequestType.LD.latency_hist_seqr::bucket_size           64                       (Unspecified)
system.caches.RequestType.LD.latency_hist_seqr::max_bucket          639                       (Unspecified)
system.caches.RequestType.LD.latency_hist_seqr::samples       337625                       (Unspecified)
system.caches.RequestType.LD.latency_hist_seqr::mean     1.596730                       (Unspecified)
system.caches.RequestType.LD.latency_hist_seqr::gmean     1.036958                       (Unspecified)
system.caches.RequestType.LD.latency_hist_seqr::stdev     7.026619                       (Unspecified)
system.caches.RequestType.LD.latency_hist_seqr |      336853     99.77%     99.77% |         685      0.20%     99.97% |          35      0.01%     99.98% |          25      0.01%     99.99% |          18      0.01%    100.00% |           8      0.00%    100.00% |           0      0.00%    100.00% |           1      0.00%    100.00% |           0      0.00%    100.00% |           0      0.00%    100.00% (Unspecified)
system.caches.RequestType.LD.latency_hist_seqr::total       337625                       (Unspecified)
system.caches.RequestType.LD.hit_latency_hist_seqr::bucket_size            1                       (Unspecified)
system.caches.RequestType.LD.hit_latency_hist_seqr::max_bucket            9                       (Unspecified)
system.caches.RequestType.LD.hit_latency_hist_seqr::samples       334710                       (Unspecified)
system.caches.RequestType.LD.hit_latency_hist_seqr::mean            1                       (Unspecified)
system.caches.RequestType.LD.hit_latency_hist_seqr::gmean            1                       (Unspecified)
system.caches.RequestType.LD.hit_latency_hist_seqr |           0      0.00%      0.00% |      334710    100.00%    100.00% |           0      0.00%    100.00% |           0      0.00%    100.00% |           0      0.00%    100.00% |           0      0.00%    100.00% |           0      0.00%    100.00% |           0      0.00%    100.00% |           0      0.00%    100.00% |           0      0.00%    100.00% (Unspecified)
system.caches.RequestType.LD.hit_latency_hist_seqr::total       334710                       (Unspecified)
system.caches.RequestType.LD.miss_latency_hist_seqr::bucket_size           64                       (Unspecified)
system.caches.RequestType.LD.miss_latency_hist_seqr::max_bucket          639                       (Unspecified)
system.caches.RequestType.LD.miss_latency_hist_seqr::samples         2915                       (Unspecified)
system.caches.RequestType.LD.miss_latency_hist_seqr::mean    70.115266                       (Unspecified)
system.caches.RequestType.LD.miss_latency_hist_seqr::gmean    66.909432                       (Unspecified)
system.caches.RequestType.LD.miss_latency_hist_seqr::stdev    31.356537                       (Unspecified)
system.caches.RequestType.LD.miss_latency_hist_seqr |        2143     73.52%     73.52% |         685     23.50%     97.02% |          35      1.20%     98.22% |          25      0.86%     99.07% |          18      0.62%     99.69% |           8      0.27%     99.97% |           0      0.00%     99.97% |           1      0.03%    100.00% |           0      0.00%    100.00% |           0      0.00%    100.00% (Unspecified)
system.caches.RequestType.LD.miss_latency_hist_seqr::total         2915                       (Unspecified)
system.caches.RequestType.ST.latency_hist_seqr::bucket_size           64                       (Unspecified)
system.caches.RequestType.ST.latency_hist_seqr::max_bucket          639                       (Unspecified)
system.caches.RequestType.ST.latency_hist_seqr::samples       156885                       (Unspecified)
system.caches.RequestType.ST.latency_hist_seqr::mean     1.318341                       (Unspecified)
system.caches.RequestType.ST.latency_hist_seqr::gmean     1.020839                       (Unspecified)
system.caches.RequestType.ST.latency_hist_seqr::stdev     5.044501                       (Unspecified)
system.caches.RequestType.ST.latency_hist_seqr |      156740     99.91%     99.91% |         129      0.08%     99.99% |           4      0.00%     99.99% |           1      0.00%     99.99% |           7      0.00%    100.00% |           4      0.00%    100.00% |           0      0.00%    100.00% |           0      0.00%    100.00% |           0      0.00%    100.00% |           0      0.00%    100.00% (Unspecified)
system.caches.RequestType.ST.latency_hist_seqr::total       156885                       (Unspecified)
system.caches.RequestType.ST.hit_latency_hist_seqr::bucket_size            1                       (Unspecified)
system.caches.RequestType.ST.hit_latency_hist_seqr::max_bucket            9                       (Unspecified)
system.caches.RequestType.ST.hit_latency_hist_seqr::samples       156095                       (Unspecified)
system.caches.RequestType.ST.hit_latency_hist_seqr::mean            1                       (Unspecified)
system.caches.RequestType.ST.hit_latency_hist_seqr::gmean            1                       (Unspecified)
system.caches.RequestType.ST.hit_latency_hist_seqr |           0      0.00%      0.00% |      156095    100.00%    100.00% |           0      0.00%    100.00% |           0      0.00%    100.00% |           0      0.00%    100.00% |           0      0.00%    100.00% |           0      0.00%    100.00% |           0      0.00%    100.00% |           0      0.00%    100.00% |           0      0.00%    100.00% (Unspecified)
system.caches.RequestType.ST.hit_latency_hist_seqr::total       156095                       (Unspecified)
system.caches.RequestType.ST.miss_latency_hist_seqr::bucket_size           64                       (Unspecified)
system.caches.RequestType.ST.miss_latency_hist_seqr::max_bucket          639                       (Unspecified)
system.caches.RequestType.ST.miss_latency_hist_seqr::samples          790                       (Unspecified)
system.caches.RequestType.ST.miss_latency_hist_seqr::mean    64.218987                       (Unspecified)
system.caches.RequestType.ST.miss_latency_hist_seqr::gmean    60.086767                       (Unspecified)
system.caches.RequestType.ST.miss_latency_hist_seqr::stdev    32.837487                       (Unspecified)
system.caches.RequestType.ST.miss_latency_hist_seqr |         645     81.65%     81.65% |         129     16.33%     97.97% |           4      0.51%     98.48% |           1      0.13%     98.61% |           7      0.89%     99.49% |           4      0.51%    100.00% |           0      0.00%    100.00% |           0      0.00%    100.00% |           0      0.00%    100.00% |           0      0.00%    100.00% (Unspecified)
system.caches.RequestType.ST.miss_latency_hist_seqr::total          790                       (Unspecified)
system.caches.RequestType.IFETCH.latency_hist_seqr::bucket_size           64                       (Unspecified)
system.caches.RequestType.IFETCH.latency_hist_seqr::max_bucket          639                       (Unspecified)
system.caches.RequestType.IFETCH.latency_hist_seqr::samples      1530496                       (Unspecified)
system.caches.RequestType.IFETCH.latency_hist_seqr::mean     1.089623                       (Unspecified)
system.caches.RequestType.IFETCH.latency_hist_seqr::gmean     1.005464                       (Unspecified)
system.caches.RequestType.IFETCH.latency_hist_seqr::stdev     2.722216                       (Unspecified)
system.caches.RequestType.IFETCH.latency_hist_seqr |     1529986     99.97%     99.97% |         465      0.03%    100.00% |          14      0.00%    100.00% |           8      0.00%    100.00% |          13      0.00%    100.00% |          10      0.00%    100.00% |           0      0.00%    100.00% |           0      0.00%    100.00% |           0      0.00%    100.00% |           0      0.00%    100.00% (Unspecified)
system.caches.RequestType.IFETCH.latency_hist_seqr::total      1530496                       (Unspecified)
system.caches.RequestType.IFETCH.hit_latency_hist_seqr::bucket_size            1                       (Unspecified)
system.caches.RequestType.IFETCH.hit_latency_hist_seqr::max_bucket            9                       (Unspecified)
system.caches.RequestType.IFETCH.hit_latency_hist_seqr::samples      1528516                       (Unspecified)
system.caches.RequestType.IFETCH.hit_latency_hist_seqr::mean            1                       (Unspecified)
system.caches.RequestType.IFETCH.hit_latency_hist_seqr::gmean            1                       (Unspecified)
system.caches.RequestType.IFETCH.hit_latency_hist_seqr |           0      0.00%      0.00% |     1528516    100.00%    100.00% |           0      0.00%    100.00% |           0      0.00%    100.00% |           0      0.00%    100.00% |           0      0.00%    100.00% |           0      0.00%    100.00% |           0      0.00%    100.00% |           0      0.00%    100.00% |           0      0.00%    100.00% (Unspecified)
system.caches.RequestType.IFETCH.hit_latency_hist_seqr::total      1528516                       (Unspecified)
system.caches.RequestType.IFETCH.miss_latency_hist_seqr::bucket_size           64                       (Unspecified)
system.caches.RequestType.IFETCH.miss_latency_hist_seqr::max_bucket          639                       (Unspecified)
system.caches.RequestType.IFETCH.miss_latency_hist_seqr::samples         1980                       (Unspecified)
system.caches.RequestType.IFETCH.miss_latency_hist_seqr::mean    70.276263                       (Unspecified)
system.caches.RequestType.IFETCH.miss_latency_hist_seqr::gmean    67.489650                       (Unspecified)
system.caches.RequestType.IFETCH.miss_latency_hist_seqr::stdev    30.587558                       (Unspecified)
system.caches.RequestType.IFETCH.miss_latency_hist_seqr |        1470     74.24%     74.24% |         465     23.48%     97.73% |          14      0.71%     98.43% |           8      0.40%     98.84% |          13      0.66%     99.49% |          10      0.51%    100.00% |           0      0.00%    100.00% |           0      0.00%    100.00% |           0      0.00%    100.00% |           0      0.00%    100.00% (Unspecified)
system.caches.RequestType.IFETCH.miss_latency_hist_seqr::total         1980                       (Unspecified)
system.caches.RequestType.RMW_Read.latency_hist_seqr::bucket_size           16                       (Unspecified)
system.caches.RequestType.RMW_Read.latency_hist_seqr::max_bucket          159                       (Unspecified)
system.caches.RequestType.RMW_Read.latency_hist_seqr::samples        11360                       (Unspecified)
system.caches.RequestType.RMW_Read.latency_hist_seqr::mean     1.205634                       (Unspecified)
system.caches.RequestType.RMW_Read.latency_hist_seqr::gmean     1.014898                       (Unspecified)
system.caches.RequestType.RMW_Read.latency_hist_seqr::stdev     3.476072                       (Unspecified)
system.caches.RequestType.RMW_Read.latency_hist_seqr |       11318     99.63%     99.63% |           2      0.02%     99.65% |           4      0.04%     99.68% |          26      0.23%     99.91% |           8      0.07%     99.98% |           2      0.02%    100.00% |           0      0.00%    100.00% |           0      0.00%    100.00% |           0      0.00%    100.00% |           0      0.00%    100.00% (Unspecified)
system.caches.RequestType.RMW_Read.latency_hist_seqr::total        11360                       (Unspecified)
system.caches.RequestType.RMW_Read.hit_latency_hist_seqr::bucket_size            1                       (Unspecified)
system.caches.RequestType.RMW_Read.hit_latency_hist_seqr::max_bucket            9                       (Unspecified)
system.caches.RequestType.RMW_Read.hit_latency_hist_seqr::samples        11318                       (Unspecified)
system.caches.RequestType.RMW_Read.hit_latency_hist_seqr::mean            1                       (Unspecified)
system.caches.RequestType.RMW_Read.hit_latency_hist_seqr::gmean            1                       (Unspecified)
system.caches.RequestType.RMW_Read.hit_latency_hist_seqr |           0      0.00%      0.00% |       11318    100.00%    100.00% |           0      0.00%    100.00% |           0      0.00%    100.00% |           0      0.00%    100.00% |           0      0.00%    100.00% |           0      0.00%    100.00% |           0      0.00%    100.00% |           0      0.00%    100.00% |           0      0.00%    100.00% (Unspecified)
system.caches.RequestType.RMW_Read.hit_latency_hist_seqr::total        11318                       (Unspecified)
system.caches.RequestType.RMW_Read.miss_latency_hist_seqr::bucket_size           16                       (Unspecified)
system.caches.RequestType.RMW_Read.miss_latency_hist_seqr::max_bucket          159                       (Unspecified)
system.caches.RequestType.RMW_Read.miss_latency_hist_seqr::samples           42                       (Unspecified)
system.caches.RequestType.RMW_Read.miss_latency_hist_seqr::mean    56.619048                       (Unspecified)
system.caches.RequestType.RMW_Read.miss_latency_hist_seqr::gmean    54.587722                       (Unspecified)
system.caches.RequestType.RMW_Read.miss_latency_hist_seqr::stdev    13.798113                       (Unspecified)
system.caches.RequestType.RMW_Read.miss_latency_hist_seqr |           0      0.00%      0.00% |           2      4.76%      4.76% |           4      9.52%     14.29% |          26     61.90%     76.19% |           8     19.05%     95.24% |           2      4.76%    100.00% |           0      0.00%    100.00% |           0      0.00%    100.00% |           0      0.00%    100.00% |           0      0.00%    100.00% (Unspecified)
system.caches.RequestType.RMW_Read.miss_latency_hist_seqr::total           42                       (Unspecified)
system.caches.RequestTypeMachineType.LD.Directory.miss_type_mach_latency_hist_seqr::bucket_size           64                       (Unspecified)
system.caches.RequestTypeMachineType.LD.Directory.miss_type_mach_latency_hist_seqr::max_bucket          639                       (Unspecified)
system.caches.RequestTypeMachineType.LD.Directory.miss_type_mach_latency_hist_seqr::samples         2915                       (Unspecified)
system.caches.RequestTypeMachineType.LD.Directory.miss_type_mach_latency_hist_seqr::mean    70.115266                       (Unspecified)
system.caches.RequestTypeMachineType.LD.Directory.miss_type_mach_latency_hist_seqr::gmean    66.909432                       (Unspecified)
system.caches.RequestTypeMachineType.LD.Directory.miss_type_mach_latency_hist_seqr::stdev    31.356537                       (Unspecified)
system.caches.RequestTypeMachineType.LD.Directory.miss_type_mach_latency_hist_seqr |        2143     73.52%     73.52% |         685     23.50%     97.02% |          35      1.20%     98.22% |          25      0.86%     99.07% |          18      0.62%     99.69% |           8      0.27%     99.97% |           0      0.00%     99.97% |           1      0.03%    100.00% |           0      0.00%    100.00% |           0      0.00%    100.00% (Unspecified)
system.caches.RequestTypeMachineType.LD.Directory.miss_type_mach_latency_hist_seqr::total         2915                       (Unspecified)
system.caches.RequestTypeMachineType.ST.Directory.miss_type_mach_latency_hist_seqr::bucket_size           64                       (Unspecified)
system.caches.RequestTypeMachineType.ST.Directory.miss_type_mach_latency_hist_seqr::max_bucket          639                       (Unspecified)
system.caches.RequestTypeMachineType.ST.Directory.miss_type_mach_latency_hist_seqr::samples          790                       (Unspecified)
system.caches.RequestTypeMachineType.ST.Directory.miss_type_mach_latency_hist_seqr::mean    64.218987                       (Unspecified)
system.caches.RequestTypeMachineType.ST.Directory.miss_type_mach_latency_hist_seqr::gmean    60.086767                       (Unspecified)
system.caches.RequestTypeMachineType.ST.Directory.miss_type_mach_latency_hist_seqr::stdev    32.837487                       (Unspecified)
system.caches.RequestTypeMachineType.ST.Directory.miss_type_mach_latency_hist_seqr |         645     81.65%     81.65% |         129     16.33%     97.97% |           4      0.51%     98.48% |           1      0.13%     98.61% |           7      0.89%     99.49% |           4      0.51%    100.00% |           0      0.00%    100.00% |           0      0.00%    100.00% |           0      0.00%    100.00% |           0      0.00%    100.00% (Unspecified)
system.caches.RequestTypeMachineType.ST.Directory.miss_type_mach_latency_hist_seqr::total          790                       (Unspecified)
system.caches.RequestTypeMachineType.IFETCH.Directory.miss_type_mach_latency_hist_seqr::bucket_size           64                       (Unspecified)
system.caches.RequestTypeMachineType.IFETCH.Directory.miss_type_mach_latency_hist_seqr::max_bucket          639                       (Unspecified)
system.caches.RequestTypeMachineType.IFETCH.Directory.miss_type_mach_latency_hist_seqr::samples         1980                       (Unspecified)
system.caches.RequestTypeMachineType.IFETCH.Directory.miss_type_mach_latency_hist_seqr::mean    70.276263                       (Unspecified)
system.caches.RequestTypeMachineType.IFETCH.Directory.miss_type_mach_latency_hist_seqr::gmean    67.489650                       (Unspecified)
system.caches.RequestTypeMachineType.IFETCH.Directory.miss_type_mach_latency_hist_seqr::stdev    30.587558                       (Unspecified)
system.caches.RequestTypeMachineType.IFETCH.Directory.miss_type_mach_latency_hist_seqr |        1470     74.24%     74.24% |         465     23.48%     97.73% |          14      0.71%     98.43% |           8      0.40%     98.84% |          13      0.66%     99.49% |          10      0.51%    100.00% |           0      0.00%    100.00% |           0      0.00%    100.00% |           0      0.00%    100.00% |           0      0.00%    100.00% (Unspecified)
system.caches.RequestTypeMachineType.IFETCH.Directory.miss_type_mach_latency_hist_seqr::total         1980                       (Unspecified)
system.caches.RequestTypeMachineType.RMW_Read.Directory.miss_type_mach_latency_hist_seqr::bucket_size           16                       (Unspecified)
system.caches.RequestTypeMachineType.RMW_Read.Directory.miss_type_mach_latency_hist_seqr::max_bucket          159                       (Unspecified)
system.caches.RequestTypeMachineType.RMW_Read.Directory.miss_type_mach_latency_hist_seqr::samples           42                       (Unspecified)
system.caches.RequestTypeMachineType.RMW_Read.Directory.miss_type_mach_latency_hist_seqr::mean    56.619048                       (Unspecified)
system.caches.RequestTypeMachineType.RMW_Read.Directory.miss_type_mach_latency_hist_seqr::gmean    54.587722                       (Unspecified)
system.caches.RequestTypeMachineType.RMW_Read.Directory.miss_type_mach_latency_hist_seqr::stdev    13.798113                       (Unspecified)
system.caches.RequestTypeMachineType.RMW_Read.Directory.miss_type_mach_latency_hist_seqr |           0      0.00%      0.00% |           2      4.76%      4.76% |           4      9.52%     14.29% |          26     61.90%     76.19% |           8     19.05%     95.24% |           2      4.76%    100.00% |           0      0.00%    100.00% |           0      0.00%    100.00% |           0      0.00%    100.00% |           0      0.00%    100.00% (Unspecified)
system.caches.RequestTypeMachineType.RMW_Read.Directory.miss_type_mach_latency_hist_seqr::total           42                       (Unspecified)
system.caches.controllers0.fullyBusyCycles        53550                       # cycles for which number of transistions == max transitions (Unspecified)
system.caches.controllers0.cacheMemory.m_demand_hits            0                       # Number of cache demand hits (Unspecified)
system.caches.controllers0.cacheMemory.m_demand_misses            0                       # Number of cache demand misses (Unspecified)
system.caches.controllers0.cacheMemory.m_demand_accesses            0                       # Number of cache demand accesses (Unspecified)
system.caches.controllers0.forwardFromDir.m_buf_msgs     0.001200                       # Average number of messages in buffer (Unspecified)
system.caches.controllers0.forwardFromDir.m_stall_time  4982.518368                       # Average number of cycles messages are stalled in this MB (Unspecified)
system.caches.controllers0.mandatoryQueue.m_buf_msgs     0.468221                       # Average number of messages in buffer (Unspecified)
system.caches.controllers0.mandatoryQueue.m_stall_time  1737.918227                       # Average number of cycles messages are stalled in this MB (Unspecified)
system.caches.controllers0.power_state.pwrStateResidencyTicks::UNDEFINED   4463542000                       # Cumulative time (in ticks) in various power states (Tick)
system.caches.controllers0.requestToDir.m_buf_msgs     0.002483                       # Average number of messages in buffer (Unspecified)
system.caches.controllers0.requestToDir.m_stall_time   999.999552                       # Average number of cycles messages are stalled in this MB (Unspecified)
system.caches.controllers0.responseFromDirOrSibling.m_buf_msgs     0.001283                       # Average number of messages in buffer (Unspecified)
system.caches.controllers0.responseFromDirOrSibling.m_stall_time  4999.918226                       # Average number of cycles messages are stalled in this MB (Unspecified)
system.caches.controllers1.cacheMemory.m_demand_hits            0                       # Number of cache demand hits (Unspecified)
system.caches.controllers1.cacheMemory.m_demand_misses            0                       # Number of cache demand misses (Unspecified)
system.caches.controllers1.cacheMemory.m_demand_accesses            0                       # Number of cache demand accesses (Unspecified)
system.caches.controllers1.power_state.pwrStateResidencyTicks::UNDEFINED   4463542000                       # Cumulative time (in ticks) in various power states (Tick)
system.caches.controllers2.cacheMemory.m_demand_hits            0                       # Number of cache demand hits (Unspecified)
system.caches.controllers2.cacheMemory.m_demand_misses            0                       # Number of cache demand misses (Unspecified)
system.caches.controllers2.cacheMemory.m_demand_accesses            0                       # Number of cache demand accesses (Unspecified)
system.caches.controllers2.power_state.pwrStateResidencyTicks::UNDEFINED   4463542000                       # Cumulative time (in ticks) in various power states (Tick)
system.caches.controllers3.cacheMemory.m_demand_hits            0                       # Number of cache demand hits (Unspecified)
system.caches.controllers3.cacheMemory.m_demand_misses            0                       # Number of cache demand misses (Unspecified)
system.caches.controllers3.cacheMemory.m_demand_accesses            0                       # Number of cache demand accesses (Unspecified)
system.caches.controllers3.power_state.pwrStateResidencyTicks::UNDEFINED   4463542000                       # Cumulative time (in ticks) in various power states (Tick)
system.caches.controllers4.forwardToCache.m_buf_msgs     0.001226                       # Average number of messages in buffer (Unspecified)
system.caches.controllers4.forwardToCache.m_stall_time   999.549013                       # Average number of cycles messages are stalled in this MB (Unspecified)
system.caches.controllers4.power_state.pwrStateResidencyTicks::UNDEFINED   4463542000                       # Cumulative time (in ticks) in various power states (Tick)
system.caches.controllers4.requestFromCache.m_buf_msgs     0.002483                       # Average number of messages in buffer (Unspecified)
system.caches.controllers4.requestFromCache.m_stall_time  4999.993279                       # Average number of cycles messages are stalled in this MB (Unspecified)
system.caches.controllers4.requestToMemory.m_buf_msgs     0.001459                       # Average number of messages in buffer (Unspecified)
system.caches.controllers4.requestToMemory.m_stall_time   999.998432                       # Average number of cycles messages are stalled in this MB (Unspecified)
system.caches.controllers4.responseFromMemory.m_buf_msgs     0.001872                       # Average number of messages in buffer (Unspecified)
system.caches.controllers4.responseFromMemory.m_stall_time   999.984765                       # Average number of cycles messages are stalled in this MB (Unspecified)
system.caches.controllers4.responseToCache.m_buf_msgs     0.001283                       # Average number of messages in buffer (Unspecified)
system.caches.controllers4.responseToCache.m_stall_time   999.984541                       # Average number of cycles messages are stalled in this MB (Unspecified)
system.caches.network.msg_count.Control         31300                       (Unspecified)
system.caches.network.msg_byte.Control         250400                       (Unspecified)
system.caches.network.msg_count.Data            13028                       (Unspecified)
system.caches.network.msg_byte.Data            938016                       (Unspecified)
system.caches.network.int_link_buffers49.m_buf_msgs     0.001200                       # Average number of messages in buffer (Unspecified)
system.caches.network.int_link_buffers49.m_stall_time  2989.512365                       # Average number of cycles messages are stalled in this MB (Unspecified)
system.caches.network.int_link_buffers50.m_buf_msgs     0.001283                       # Average number of messages in buffer (Unspecified)
system.caches.network.int_link_buffers50.m_stall_time  2999.952280                       # Average number of cycles messages are stalled in this MB (Unspecified)
system.caches.network.int_link_buffers9.m_buf_msgs     0.002483                       # Average number of messages in buffer (Unspecified)
system.caches.network.int_link_buffers9.m_stall_time  2999.997312                       # Average number of cycles messages are stalled in this MB (Unspecified)
system.caches.network.power_state.pwrStateResidencyTicks::UNDEFINED   4463542000                       # Cumulative time (in ticks) in various power states (Tick)
system.caches.network.routers0.percent_links_utilized     0.166406                       (Unspecified)
system.caches.network.routers0.msg_count.Control::0        10295                       (Unspecified)
system.caches.network.routers0.msg_count.Control::1         5355                       (Unspecified)
system.caches.network.routers0.msg_bytes.Control::0        82360                       (Unspecified)
system.caches.network.routers0.msg_bytes.Control::1        42840                       (Unspecified)
system.caches.network.routers0.msg_count.Data::0          787                       (Unspecified)
system.caches.network.routers0.msg_count.Data::2         5727                       (Unspecified)
system.caches.network.routers0.msg_bytes.Data::0        56664                       (Unspecified)
system.caches.network.routers0.msg_bytes.Data::2       412344                       (Unspecified)
system.caches.network.routers0.port_buffers1.m_buf_msgs     0.001200                       # Average number of messages in buffer (Unspecified)
system.caches.network.routers0.port_buffers1.m_stall_time  3986.015590                       # Average number of cycles messages are stalled in this MB (Unspecified)
system.caches.network.routers0.port_buffers12.m_buf_msgs     0.002483                       # Average number of messages in buffer (Unspecified)
system.caches.network.routers0.port_buffers12.m_stall_time  1999.998656                       # Average number of cycles messages are stalled in this MB (Unspecified)
system.caches.network.routers0.port_buffers2.m_buf_msgs     0.001283                       # Average number of messages in buffer (Unspecified)
system.caches.network.routers0.port_buffers2.m_stall_time  3999.935477                       # Average number of cycles messages are stalled in this MB (Unspecified)
system.caches.network.routers0.power_state.pwrStateResidencyTicks::UNDEFINED   4463542000                       # Cumulative time (in ticks) in various power states (Tick)
system.caches.network.routers0.throttle00.link_utilization     0.637364                       (Unspecified)
system.caches.network.routers0.throttle00.msg_count.Control::1         5355                       (Unspecified)
system.caches.network.routers0.throttle00.msg_bytes.Control::1        42840                       (Unspecified)
system.caches.network.routers0.throttle00.msg_count.Data::2         5727                       (Unspecified)
system.caches.network.routers0.throttle00.msg_bytes.Data::2       412344                       (Unspecified)
system.caches.network.routers0.throttle01.link_utilization            0                       (Unspecified)
system.caches.network.routers0.throttle02.link_utilization            0                       (Unspecified)
system.caches.network.routers0.throttle03.link_utilization            0                       (Unspecified)
system.caches.network.routers0.throttle04.link_utilization     0.194666                       (Unspecified)
system.caches.network.routers0.throttle04.msg_count.Control::0        10295                       (Unspecified)
system.caches.network.routers0.throttle04.msg_bytes.Control::0        82360                       (Unspecified)
system.caches.network.routers0.throttle04.msg_count.Data::0          787                       (Unspecified)
system.caches.network.routers0.throttle04.msg_bytes.Data::0        56664                       (Unspecified)
system.caches.network.routers1.percent_links_utilized            0                       (Unspecified)
system.caches.network.routers1.power_state.pwrStateResidencyTicks::UNDEFINED   4463542000                       # Cumulative time (in ticks) in various power states (Tick)
system.caches.network.routers1.throttle00.link_utilization            0                       (Unspecified)
system.caches.network.routers1.throttle01.link_utilization            0                       (Unspecified)
system.caches.network.routers1.throttle02.link_utilization            0                       (Unspecified)
system.caches.network.routers1.throttle03.link_utilization            0                       (Unspecified)
system.caches.network.routers1.throttle04.link_utilization            0                       (Unspecified)
system.caches.network.routers2.percent_links_utilized            0                       (Unspecified)
system.caches.network.routers2.power_state.pwrStateResidencyTicks::UNDEFINED   4463542000                       # Cumulative time (in ticks) in various power states (Tick)
system.caches.network.routers2.throttle00.link_utilization            0                       (Unspecified)
system.caches.network.routers2.throttle01.link_utilization            0                       (Unspecified)
system.caches.network.routers2.throttle02.link_utilization            0                       (Unspecified)
system.caches.network.routers2.throttle03.link_utilization            0                       (Unspecified)
system.caches.network.routers2.throttle04.link_utilization            0                       (Unspecified)
system.caches.network.routers3.percent_links_utilized            0                       (Unspecified)
system.caches.network.routers3.power_state.pwrStateResidencyTicks::UNDEFINED   4463542000                       # Cumulative time (in ticks) in various power states (Tick)
system.caches.network.routers3.throttle00.link_utilization            0                       (Unspecified)
system.caches.network.routers3.throttle01.link_utilization            0                       (Unspecified)
system.caches.network.routers3.throttle02.link_utilization            0                       (Unspecified)
system.caches.network.routers3.throttle03.link_utilization            0                       (Unspecified)
system.caches.network.routers3.throttle04.link_utilization            0                       (Unspecified)
system.caches.network.routers4.percent_links_utilized     0.166406                       (Unspecified)
system.caches.network.routers4.msg_count.Control::0        10295                       (Unspecified)
system.caches.network.routers4.msg_count.Control::1         5355                       (Unspecified)
system.caches.network.routers4.msg_bytes.Control::0        82360                       (Unspecified)
system.caches.network.routers4.msg_bytes.Control::1        42840                       (Unspecified)
system.caches.network.routers4.msg_count.Data::0          787                       (Unspecified)
system.caches.network.routers4.msg_count.Data::2         5727                       (Unspecified)
system.caches.network.routers4.msg_bytes.Data::0        56664                       (Unspecified)
system.caches.network.routers4.msg_bytes.Data::2       412344                       (Unspecified)
system.caches.network.routers4.port_buffers0.m_buf_msgs     0.002483                       # Average number of messages in buffer (Unspecified)
system.caches.network.routers4.port_buffers0.m_stall_time  3999.995519                       # Average number of cycles messages are stalled in this MB (Unspecified)
system.caches.network.routers4.port_buffers4.m_buf_msgs     0.001200                       # Average number of messages in buffer (Unspecified)
system.caches.network.routers4.port_buffers4.m_stall_time  1993.008691                       # Average number of cycles messages are stalled in this MB (Unspecified)
system.caches.network.routers4.port_buffers5.m_buf_msgs     0.001283                       # Average number of messages in buffer (Unspecified)
system.caches.network.routers4.port_buffers5.m_stall_time  1999.968635                       # Average number of cycles messages are stalled in this MB (Unspecified)
system.caches.network.routers4.power_state.pwrStateResidencyTicks::UNDEFINED   4463542000                       # Cumulative time (in ticks) in various power states (Tick)
system.caches.network.routers4.throttle00.link_utilization     0.194666                       (Unspecified)
system.caches.network.routers4.throttle00.msg_count.Control::0        10295                       (Unspecified)
system.caches.network.routers4.throttle00.msg_bytes.Control::0        82360                       (Unspecified)
system.caches.network.routers4.throttle00.msg_count.Data::0          787                       (Unspecified)
system.caches.network.routers4.throttle00.msg_bytes.Data::0        56664                       (Unspecified)
system.caches.network.routers4.throttle01.link_utilization     0.637364                       (Unspecified)
system.caches.network.routers4.throttle01.msg_count.Control::1         5355                       (Unspecified)
system.caches.network.routers4.throttle01.msg_bytes.Control::1        42840                       (Unspecified)
system.caches.network.routers4.throttle01.msg_count.Data::2         5727                       (Unspecified)
system.caches.network.routers4.throttle01.msg_bytes.Data::2       412344                       (Unspecified)
system.caches.network.routers4.throttle02.link_utilization            0                       (Unspecified)
system.caches.network.routers4.throttle03.link_utilization            0                       (Unspecified)
system.caches.network.routers4.throttle04.link_utilization            0                       (Unspecified)
system.caches.power_state.pwrStateResidencyTicks::UNDEFINED   4463542000                       # Cumulative time (in ticks) in various power states (Tick)
system.caches.sequencers0.power_state.pwrStateResidencyTicks::UNDEFINED   4463542000                       # Cumulative time (in ticks) in various power states (Tick)
system.caches.sequencers1.power_state.pwrStateResidencyTicks::UNDEFINED   4463542000                       # Cumulative time (in ticks) in various power states (Tick)
system.caches.sequencers2.power_state.pwrStateResidencyTicks::UNDEFINED   4463542000                       # Cumulative time (in ticks) in various power states (Tick)
system.caches.sequencers3.power_state.pwrStateResidencyTicks::UNDEFINED   4463542000                       # Cumulative time (in ticks) in various power states (Tick)
system.caches.sys_port_proxy.power_state.pwrStateResidencyTicks::UNDEFINED   4463542000                       # Cumulative time (in ticks) in various power states (Tick)
system.clk_domain.clock                          1000                       # Clock period in ticks (Tick)
system.clk_domain.voltage_domain.voltage            1                       # Voltage in Volts (Volt)
system.cpu0.numCycles                         4463542                       # Number of cpu cycles simulated (Cycle)
system.cpu0.numWorkItemsStarted                     0                       # Number of work items this cpu started (Count)
system.cpu0.numWorkItemsCompleted                   0                       # Number of work items this cpu completed (Count)
system.cpu0.exec_context.thread_0.numInsts      1224189                       # Number of instructions committed (Count)
system.cpu0.exec_context.thread_0.numOps      2004043                       # Number of ops (including micro ops) committed (Count)
system.cpu0.exec_context.thread_0.numIntAluAccesses      1991187                       # Number of integer alu accesses (Count)
system.cpu0.exec_context.thread_0.numFpAluAccesses        15233                       # Number of float alu accesses (Count)
system.cpu0.exec_context.thread_0.numVecAluAccesses            0                       # Number of vector alu accesses (Count)
system.cpu0.exec_context.thread_0.numCallsReturns        67050                       # Number of times a function call or return occured (Count)
system.cpu0.exec_context.thread_0.numCondCtrlInsts        58135                       # Number of instructions that are conditional controls (Count)
system.cpu0.exec_context.thread_0.numIntInsts      1991187                       # Number of integer instructions (Count)
system.cpu0.exec_context.thread_0.numFpInsts        15233                       # Number of float instructions (Count)
system.cpu0.exec_context.thread_0.numVecInsts            0                       # Number of vector instructions (Count)
system.cpu0.exec_context.thread_0.numIntRegReads      4514149                       # Number of times the integer registers were read (Count)
system.cpu0.exec_context.thread_0.numIntRegWrites      1703450                       # Number of times the integer registers were written (Count)
system.cpu0.exec_context.thread_0.numFpRegReads        24941                       # Number of times the floating registers were read (Count)
system.cpu0.exec_context.thread_0.numFpRegWrites        12426                       # Number of times the floating registers were written (Count)
system.cpu0.exec_context.thread_0.numVecRegReads            0                       # Number of times the vector registers were read (Count)
system.cpu0.exec_context.thread_0.numVecRegWrites            0                       # Number of times the vector registers were written (Count)
system.cpu0.exec_context.thread_0.numVecPredRegReads            0                       # Number of times the predicate registers were read (Count)
system.cpu0.exec_context.thread_0.numVecPredRegWrites            0                       # Number of times the predicate registers were written (Count)
system.cpu0.exec_context.thread_0.numCCRegReads       461705                       # Number of times the CC registers were read (Count)
system.cpu0.exec_context.thread_0.numCCRegWrites       736386                       # Number of times the CC registers were written (Count)
system.cpu0.exec_context.thread_0.numMemRefs       505918                       # Number of memory refs (Count)
system.cpu0.exec_context.thread_0.numLoadInsts       349025                       # Number of load instructions (Count)
system.cpu0.exec_context.thread_0.numStoreInsts       156893                       # Number of store instructions (Count)
system.cpu0.exec_context.thread_0.numIdleCycles     0.001000                       # Number of idle cycles (Cycle)
system.cpu0.exec_context.thread_0.numBusyCycles 4463541.999000                       # Number of busy cycles (Cycle)
system.cpu0.exec_context.thread_0.notIdleFraction     1.000000                       # Percentage of non-idle cycles (Ratio)
system.cpu0.exec_context.thread_0.idleFraction     0.000000                       # Percentage of idle cycles (Ratio)
system.cpu0.exec_context.thread_0.numBranches       132579                       # Number of branches fetched (Count)
system.cpu0.exec_context.thread_0.statExecutedInstType::No_OpClass         2544      0.13%      0.13% # Class of executed instruction. (Count)
system.cpu0.exec_context.thread_0.statExecutedInstType::IntAlu      1484098     74.05%     74.18% # Class of executed instruction. (Count)
system.cpu0.exec_context.thread_0.statExecutedInstType::IntMult          557      0.03%     74.21% # Class of executed instruction. (Count)
system.cpu0.exec_context.thread_0.statExecutedInstType::IntDiv         1390      0.07%     74.28% # Class of executed instruction. (Count)
system.cpu0.exec_context.thread_0.statExecutedInstType::FloatAdd          522      0.03%     74.30% # Class of executed instruction. (Count)
system.cpu0.exec_context.thread_0.statExecutedInstType::FloatCmp            0      0.00%     74.30% # Class of executed instruction. (Count)
system.cpu0.exec_context.thread_0.statExecutedInstType::FloatCvt           32      0.00%     74.30% # Class of executed instruction. (Count)
system.cpu0.exec_context.thread_0.statExecutedInstType::FloatMult            0      0.00%     74.30% # Class of executed instruction. (Count)
system.cpu0.exec_context.thread_0.statExecutedInstType::FloatMultAcc            0      0.00%     74.30% # Class of executed instruction. (Count)
system.cpu0.exec_context.thread_0.statExecutedInstType::FloatDiv            0      0.00%     74.30% # Class of executed instruction. (Count)
system.cpu0.exec_context.thread_0.statExecutedInstType::FloatMisc            0      0.00%     74.30% # Class of executed instruction. (Count)
system.cpu0.exec_context.thread_0.statExecutedInstType::FloatSqrt            0      0.00%     74.30% # Class of executed instruction. (Count)
system.cpu0.exec_context.thread_0.statExecutedInstType::SimdAdd          968      0.05%     74.35% # Class of executed instruction. (Count)
system.cpu0.exec_context.thread_0.statExecutedInstType::SimdAddAcc            0      0.00%     74.35% # Class of executed instruction. (Count)
system.cpu0.exec_context.thread_0.statExecutedInstType::SimdAlu         2060      0.10%     74.45% # Class of executed instruction. (Count)
system.cpu0.exec_context.thread_0.statExecutedInstType::SimdCmp            0      0.00%     74.45% # Class of executed instruction. (Count)
system.cpu0.exec_context.thread_0.statExecutedInstType::SimdCvt         2378      0.12%     74.57% # Class of executed instruction. (Count)
system.cpu0.exec_context.thread_0.statExecutedInstType::SimdMisc         3241      0.16%     74.73% # Class of executed instruction. (Count)
system.cpu0.exec_context.thread_0.statExecutedInstType::SimdMult            0      0.00%     74.73% # Class of executed instruction. (Count)
system.cpu0.exec_context.thread_0.statExecutedInstType::SimdMultAcc            0      0.00%     74.73% # Class of executed instruction. (Count)
system.cpu0.exec_context.thread_0.statExecutedInstType::SimdShift          442      0.02%     74.76% # Class of executed instruction. (Count)
system.cpu0.exec_context.thread_0.statExecutedInstType::SimdShiftAcc            0      0.00%     74.76% # Class of executed instruction. (Count)
system.cpu0.exec_context.thread_0.statExecutedInstType::SimdDiv            0      0.00%     74.76% # Class of executed instruction. (Count)
system.cpu0.exec_context.thread_0.statExecutedInstType::SimdSqrt            0      0.00%     74.76% # Class of executed instruction. (Count)
system.cpu0.exec_context.thread_0.statExecutedInstType::SimdFloatAdd            0      0.00%     74.76% # Class of executed instruction. (Count)
system.cpu0.exec_context.thread_0.statExecutedInstType::SimdFloatAlu            0      0.00%     74.76% # Class of executed instruction. (Count)
system.cpu0.exec_context.thread_0.statExecutedInstType::SimdFloatCmp            0      0.00%     74.76% # Class of executed instruction. (Count)
system.cpu0.exec_context.thread_0.statExecutedInstType::SimdFloatCvt            0      0.00%     74.76% # Class of executed instruction. (Count)
system.cpu0.exec_context.thread_0.statExecutedInstType::SimdFloatDiv            0      0.00%     74.76% # Class of executed instruction. (Count)
system.cpu0.exec_context.thread_0.statExecutedInstType::SimdFloatMisc            0      0.00%     74.76% # Class of executed instruction. (Count)
system.cpu0.exec_context.thread_0.statExecutedInstType::SimdFloatMult            0      0.00%     74.76% # Class of executed instruction. (Count)
system.cpu0.exec_context.thread_0.statExecutedInstType::SimdFloatMultAcc            0      0.00%     74.76% # Class of executed instruction. (Count)
system.cpu0.exec_context.thread_0.statExecutedInstType::SimdFloatSqrt            0      0.00%     74.76% # Class of executed instruction. (Count)
system.cpu0.exec_context.thread_0.statExecutedInstType::SimdReduceAdd            0      0.00%     74.76% # Class of executed instruction. (Count)
system.cpu0.exec_context.thread_0.statExecutedInstType::SimdReduceAlu            0      0.00%     74.76% # Class of executed instruction. (Count)
system.cpu0.exec_context.thread_0.statExecutedInstType::SimdReduceCmp            0      0.00%     74.76% # Class of executed instruction. (Count)
system.cpu0.exec_context.thread_0.statExecutedInstType::SimdFloatReduceAdd            0      0.00%     74.76% # Class of executed instruction. (Count)
system.cpu0.exec_context.thread_0.statExecutedInstType::SimdFloatReduceCmp            0      0.00%     74.76% # Class of executed instruction. (Count)
system.cpu0.exec_context.thread_0.statExecutedInstType::SimdAes            0      0.00%     74.76% # Class of executed instruction. (Count)
system.cpu0.exec_context.thread_0.statExecutedInstType::SimdAesMix            0      0.00%     74.76% # Class of executed instruction. (Count)
system.cpu0.exec_context.thread_0.statExecutedInstType::SimdSha1Hash            0      0.00%     74.76% # Class of executed instruction. (Count)
system.cpu0.exec_context.thread_0.statExecutedInstType::SimdSha1Hash2            0      0.00%     74.76% # Class of executed instruction. (Count)
system.cpu0.exec_context.thread_0.statExecutedInstType::SimdSha256Hash            0      0.00%     74.76% # Class of executed instruction. (Count)
system.cpu0.exec_context.thread_0.statExecutedInstType::SimdSha256Hash2            0      0.00%     74.76% # Class of executed instruction. (Count)
system.cpu0.exec_context.thread_0.statExecutedInstType::SimdShaSigma2            0      0.00%     74.76% # Class of executed instruction. (Count)
system.cpu0.exec_context.thread_0.statExecutedInstType::SimdShaSigma3            0      0.00%     74.76% # Class of executed instruction. (Count)
system.cpu0.exec_context.thread_0.statExecutedInstType::SimdPredAlu            0      0.00%     74.76% # Class of executed instruction. (Count)
system.cpu0.exec_context.thread_0.statExecutedInstType::MemRead       346377     17.28%     92.04% # Class of executed instruction. (Count)
system.cpu0.exec_context.thread_0.statExecutedInstType::MemWrite       155319      7.75%     99.79% # Class of executed instruction. (Count)
system.cpu0.exec_context.thread_0.statExecutedInstType::FloatMemRead         2648      0.13%     99.92% # Class of executed instruction. (Count)
system.cpu0.exec_context.thread_0.statExecutedInstType::FloatMemWrite         1574      0.08%    100.00% # Class of executed instruction. (Count)
system.cpu0.exec_context.thread_0.statExecutedInstType::IprAccess            0      0.00%    100.00% # Class of executed instruction. (Count)
system.cpu0.exec_context.thread_0.statExecutedInstType::InstPrefetch            0      0.00%    100.00% # Class of executed instruction. (Count)
system.cpu0.exec_context.thread_0.statExecutedInstType::total      2004150                       # Class of executed instruction. (Count)
system.cpu0.interrupts.clk_domain.clock         16000                       # Clock period in ticks (Tick)
system.cpu0.mmu.dtb.rdAccesses                 349036                       # TLB accesses on read requests (Count)
system.cpu0.mmu.dtb.wrAccesses                 156896                       # TLB accesses on write requests (Count)
system.cpu0.mmu.dtb.rdMisses                      159                       # TLB misses on read requests (Count)
system.cpu0.mmu.dtb.wrMisses                       29                       # TLB misses on write requests (Count)
system.cpu0.mmu.dtb.walker.power_state.pwrStateResidencyTicks::UNDEFINED   4463542000                       # Cumulative time (in ticks) in various power states (Tick)
system.cpu0.mmu.itb.rdAccesses                      0                       # TLB accesses on read requests (Count)
system.cpu0.mmu.itb.wrAccesses                1530552                       # TLB accesses on write requests (Count)
system.cpu0.mmu.itb.rdMisses                        0                       # TLB misses on read requests (Count)
system.cpu0.mmu.itb.wrMisses                      189                       # TLB misses on write requests (Count)
system.cpu0.mmu.itb.walker.power_state.pwrStateResidencyTicks::UNDEFINED   4463542000                       # Cumulative time (in ticks) in various power states (Tick)
system.cpu0.power_state.pwrStateResidencyTicks::ON   4463542000                       # Cumulative time (in ticks) in various power states (Tick)
system.cpu0.thread_0.numInsts                       0                       # Number of Instructions committed (Count)
system.cpu0.thread_0.numOps                         0                       # Number of Ops committed (Count)
system.cpu0.thread_0.numMemRefs                     0                       # Number of Memory References (Count)
system.cpu0.workload.numSyscalls                   45                       # Number of system calls (Count)
system.cpu1.numCycles                               0                       # Number of cpu cycles simulated (Cycle)
system.cpu1.numWorkItemsStarted                     0                       # Number of work items this cpu started (Count)
system.cpu1.numWorkItemsCompleted                   0                       # Number of work items this cpu completed (Count)
system.cpu1.exec_context.thread_0.numInsts            0                       # Number of instructions committed (Count)
system.cpu1.exec_context.thread_0.numOps            0                       # Number of ops (including micro ops) committed (Count)
system.cpu1.exec_context.thread_0.numIntAluAccesses            0                       # Number of integer alu accesses (Count)
system.cpu1.exec_context.thread_0.numFpAluAccesses            0                       # Number of float alu accesses (Count)
system.cpu1.exec_context.thread_0.numVecAluAccesses            0                       # Number of vector alu accesses (Count)
system.cpu1.exec_context.thread_0.numCallsReturns            0                       # Number of times a function call or return occured (Count)
system.cpu1.exec_context.thread_0.numCondCtrlInsts            0                       # Number of instructions that are conditional controls (Count)
system.cpu1.exec_context.thread_0.numIntInsts            0                       # Number of integer instructions (Count)
system.cpu1.exec_context.thread_0.numFpInsts            0                       # Number of float instructions (Count)
system.cpu1.exec_context.thread_0.numVecInsts            0                       # Number of vector instructions (Count)
system.cpu1.exec_context.thread_0.numIntRegReads            0                       # Number of times the integer registers were read (Count)
system.cpu1.exec_context.thread_0.numIntRegWrites            0                       # Number of times the integer registers were written (Count)
system.cpu1.exec_context.thread_0.numFpRegReads            0                       # Number of times the floating registers were read (Count)
system.cpu1.exec_context.thread_0.numFpRegWrites            0                       # Number of times the floating registers were written (Count)
system.cpu1.exec_context.thread_0.numVecRegReads            0                       # Number of times the vector registers were read (Count)
system.cpu1.exec_context.thread_0.numVecRegWrites            0                       # Number of times the vector registers were written (Count)
system.cpu1.exec_context.thread_0.numVecPredRegReads            0                       # Number of times the predicate registers were read (Count)
system.cpu1.exec_context.thread_0.numVecPredRegWrites            0                       # Number of times the predicate registers were written (Count)
system.cpu1.exec_context.thread_0.numMemRefs            0                       # Number of memory refs (Count)
system.cpu1.exec_context.thread_0.numLoadInsts            0                       # Number of load instructions (Count)
system.cpu1.exec_context.thread_0.numStoreInsts            0                       # Number of store instructions (Count)
system.cpu1.exec_context.thread_0.numIdleCycles            0                       # Number of idle cycles (Cycle)
system.cpu1.exec_context.thread_0.numBusyCycles            0                       # Number of busy cycles (Cycle)
system.cpu1.exec_context.thread_0.notIdleFraction            0                       # Percentage of non-idle cycles (Ratio)
system.cpu1.exec_context.thread_0.idleFraction            1                       # Percentage of idle cycles (Ratio)
system.cpu1.exec_context.thread_0.statExecutedInstType::No_OpClass            0                       # Class of executed instruction. (Count)
system.cpu1.exec_context.thread_0.statExecutedInstType::IntAlu            0                       # Class of executed instruction. (Count)
system.cpu1.exec_context.thread_0.statExecutedInstType::IntMult            0                       # Class of executed instruction. (Count)
system.cpu1.exec_context.thread_0.statExecutedInstType::IntDiv            0                       # Class of executed instruction. (Count)
system.cpu1.exec_context.thread_0.statExecutedInstType::FloatAdd            0                       # Class of executed instruction. (Count)
system.cpu1.exec_context.thread_0.statExecutedInstType::FloatCmp            0                       # Class of executed instruction. (Count)
system.cpu1.exec_context.thread_0.statExecutedInstType::FloatCvt            0                       # Class of executed instruction. (Count)
system.cpu1.exec_context.thread_0.statExecutedInstType::FloatMult            0                       # Class of executed instruction. (Count)
system.cpu1.exec_context.thread_0.statExecutedInstType::FloatMultAcc            0                       # Class of executed instruction. (Count)
system.cpu1.exec_context.thread_0.statExecutedInstType::FloatDiv            0                       # Class of executed instruction. (Count)
system.cpu1.exec_context.thread_0.statExecutedInstType::FloatMisc            0                       # Class of executed instruction. (Count)
system.cpu1.exec_context.thread_0.statExecutedInstType::FloatSqrt            0                       # Class of executed instruction. (Count)
system.cpu1.exec_context.thread_0.statExecutedInstType::SimdAdd            0                       # Class of executed instruction. (Count)
system.cpu1.exec_context.thread_0.statExecutedInstType::SimdAddAcc            0                       # Class of executed instruction. (Count)
system.cpu1.exec_context.thread_0.statExecutedInstType::SimdAlu            0                       # Class of executed instruction. (Count)
system.cpu1.exec_context.thread_0.statExecutedInstType::SimdCmp            0                       # Class of executed instruction. (Count)
system.cpu1.exec_context.thread_0.statExecutedInstType::SimdCvt            0                       # Class of executed instruction. (Count)
system.cpu1.exec_context.thread_0.statExecutedInstType::SimdMisc            0                       # Class of executed instruction. (Count)
system.cpu1.exec_context.thread_0.statExecutedInstType::SimdMult            0                       # Class of executed instruction. (Count)
system.cpu1.exec_context.thread_0.statExecutedInstType::SimdMultAcc            0                       # Class of executed instruction. (Count)
system.cpu1.exec_context.thread_0.statExecutedInstType::SimdShift            0                       # Class of executed instruction. (Count)
system.cpu1.exec_context.thread_0.statExecutedInstType::SimdShiftAcc            0                       # Class of executed instruction. (Count)
system.cpu1.exec_context.thread_0.statExecutedInstType::SimdDiv            0                       # Class of executed instruction. (Count)
system.cpu1.exec_context.thread_0.statExecutedInstType::SimdSqrt            0                       # Class of executed instruction. (Count)
system.cpu1.exec_context.thread_0.statExecutedInstType::SimdFloatAdd            0                       # Class of executed instruction. (Count)
system.cpu1.exec_context.thread_0.statExecutedInstType::SimdFloatAlu            0                       # Class of executed instruction. (Count)
system.cpu1.exec_context.thread_0.statExecutedInstType::SimdFloatCmp            0                       # Class of executed instruction. (Count)
system.cpu1.exec_context.thread_0.statExecutedInstType::SimdFloatCvt            0                       # Class of executed instruction. (Count)
system.cpu1.exec_context.thread_0.statExecutedInstType::SimdFloatDiv            0                       # Class of executed instruction. (Count)
system.cpu1.exec_context.thread_0.statExecutedInstType::SimdFloatMisc            0                       # Class of executed instruction. (Count)
system.cpu1.exec_context.thread_0.statExecutedInstType::SimdFloatMult            0                       # Class of executed instruction. (Count)
system.cpu1.exec_context.thread_0.statExecutedInstType::SimdFloatMultAcc            0                       # Class of executed instruction. (Count)
system.cpu1.exec_context.thread_0.statExecutedInstType::SimdFloatSqrt            0                       # Class of executed instruction. (Count)
system.cpu1.exec_context.thread_0.statExecutedInstType::SimdReduceAdd            0                       # Class of executed instruction. (Count)
system.cpu1.exec_context.thread_0.statExecutedInstType::SimdReduceAlu            0                       # Class of executed instruction. (Count)
system.cpu1.exec_context.thread_0.statExecutedInstType::SimdReduceCmp            0                       # Class of executed instruction. (Count)
system.cpu1.exec_context.thread_0.statExecutedInstType::SimdFloatReduceAdd            0                       # Class of executed instruction. (Count)
system.cpu1.exec_context.thread_0.statExecutedInstType::SimdFloatReduceCmp            0                       # Class of executed instruction. (Count)
system.cpu1.exec_context.thread_0.statExecutedInstType::SimdAes            0                       # Class of executed instruction. (Count)
system.cpu1.exec_context.thread_0.statExecutedInstType::SimdAesMix            0                       # Class of executed instruction. (Count)
system.cpu1.exec_context.thread_0.statExecutedInstType::SimdSha1Hash            0                       # Class of executed instruction. (Count)
system.cpu1.exec_context.thread_0.statExecutedInstType::SimdSha1Hash2            0                       # Class of executed instruction. (Count)
[...]
system.mem_ctrl.rdPerTurnAround::mean      116.826087                       # Reads before turning the bus around for writes (Count)
system.mem_ctrl.rdPerTurnAround::gmean      83.193750                       # Reads before turning the bus around for writes (Count)
system.mem_ctrl.rdPerTurnAround::stdev     154.921959                       # Reads before turning the bus around for writes (Count)
system.mem_ctrl.rdPerTurnAround::0-63              19     41.30%     41.30% # Reads before turning the bus around for writes (Count)
system.mem_ctrl.rdPerTurnAround::64-127            18     39.13%     80.43% # Reads before turning the bus around for writes (Count)
system.mem_ctrl.rdPerTurnAround::128-191            3      6.52%     86.96% # Reads before turning the bus around for writes (Count)
system.mem_ctrl.rdPerTurnAround::192-255            3      6.52%     93.48% # Reads before turning the bus around for writes (Count)
system.mem_ctrl.rdPerTurnAround::256-319            1      2.17%     95.65% # Reads before turning the bus around for writes (Count)
system.mem_ctrl.rdPerTurnAround::320-383            1      2.17%     97.83% # Reads before turning the bus around for writes (Count)
system.mem_ctrl.rdPerTurnAround::1024-1087            1      2.17%    100.00% # Reads before turning the bus around for writes (Count)
system.mem_ctrl.rdPerTurnAround::total             46                       # Reads before turning the bus around for writes (Count)
system.mem_ctrl.wrPerTurnAround::samples           46                       # Writes before turning the bus around for reads (Count)
system.mem_ctrl.wrPerTurnAround::mean       16.086957                       # Writes before turning the bus around for reads (Count)
system.mem_ctrl.wrPerTurnAround::gmean      16.082146                       # Writes before turning the bus around for reads (Count)
system.mem_ctrl.wrPerTurnAround::stdev       0.412369                       # Writes before turning the bus around for reads (Count)
system.mem_ctrl.wrPerTurnAround::16                44     95.65%     95.65% # Writes before turning the bus around for reads (Count)
system.mem_ctrl.wrPerTurnAround::18                 2      4.35%    100.00% # Writes before turning the bus around for reads (Count)
system.mem_ctrl.wrPerTurnAround::total             46                       # Writes before turning the bus around for reads (Count)
system.mem_ctrl.bytesReadWrQ                    10176                       # Total number of bytes read from write queue (Byte)
system.mem_ctrl.bytesReadSys                   366528                       # Total read bytes from the system interface side (Byte)
system.mem_ctrl.bytesWrittenSys                 50368                       # Total written bytes from the system interface side (Byte)
system.mem_ctrl.avgRdBWSys               82115951.86065237                       # Average system read bandwidth in Byte/s ((Byte/Second))
system.mem_ctrl.avgWrBWSys               11284311.87608406                       # Average system write bandwidth in Byte/s ((Byte/Second))
system.mem_ctrl.totGap                     4463483000                       # Total gap between requests (Tick)
system.mem_ctrl.avgGap                      685213.85                       # Average gap between requests ((Tick/Count))
system.mem_ctrl.requestorReadBytes::caches.controllers4       356352                       # Per-requestor bytes read from memory (Byte)
system.mem_ctrl.requestorWriteBytes::caches.controllers4        47360                       # Per-requestor bytes write to memory (Byte)
system.mem_ctrl.requestorReadRate::caches.controllers4 79836148.063578203321                       # Per-requestor bytes read from memory rate ((Byte/Second))
system.mem_ctrl.requestorWriteRate::caches.controllers4 10610407.609024401754                       # Per-requestor bytes write to memory rate ((Byte/Second))
system.mem_ctrl.requestorReadAccesses::caches.controllers4         5727                       # Per-requestor read serviced memory accesses (Count)
system.mem_ctrl.requestorWriteAccesses::caches.controllers4          787                       # Per-requestor write serviced memory accesses (Count)
system.mem_ctrl.requestorReadTotalLat::caches.controllers4    153841500                       # Per-requestor read total memory access latency (Tick)
system.mem_ctrl.requestorWriteTotalLat::caches.controllers4 101861000250                       # Per-requestor write total memory access latency (Tick)
system.mem_ctrl.requestorReadAvgLat::caches.controllers4     26862.49                       # Per-requestor read average memory access latency ((Tick/Count))
system.mem_ctrl.requestorWriteAvgLat::caches.controllers4 129429479.35                       # Per-requestor write average memory access latency ((Tick/Count))
system.mem_ctrl.dram.bytesRead::caches.controllers4       366528                       # Number of bytes read from this memory (Byte)
system.mem_ctrl.dram.bytesRead::total          366528                       # Number of bytes read from this memory (Byte)
system.mem_ctrl.dram.bytesWritten::caches.controllers4        50368                       # Number of bytes written to this memory (Byte)
system.mem_ctrl.dram.bytesWritten::total        50368                       # Number of bytes written to this memory (Byte)
system.mem_ctrl.dram.numReads::caches.controllers4         5727                       # Number of read requests responded to by this memory (Count)
system.mem_ctrl.dram.numReads::total             5727                       # Number of read requests responded to by this memory (Count)
system.mem_ctrl.dram.numWrites::caches.controllers4          787                       # Number of write requests responded to by this memory (Count)
system.mem_ctrl.dram.numWrites::total             787                       # Number of write requests responded to by this memory (Count)
system.mem_ctrl.dram.bwRead::caches.controllers4     82115952                       # Total read bandwidth from this memory ((Byte/Second))
system.mem_ctrl.dram.bwRead::total           82115952                       # Total read bandwidth from this memory ((Byte/Second))
system.mem_ctrl.dram.bwWrite::caches.controllers4     11284312                       # Write bandwidth from this memory ((Byte/Second))
system.mem_ctrl.dram.bwWrite::total          11284312                       # Write bandwidth from this memory ((Byte/Second))
system.mem_ctrl.dram.bwTotal::caches.controllers4     93400264                       # Total bandwidth to/from this memory ((Byte/Second))
system.mem_ctrl.dram.bwTotal::total          93400264                       # Total bandwidth to/from this memory ((Byte/Second))
system.mem_ctrl.dram.readBursts                  5568                       # Number of DRAM read bursts (Count)
system.mem_ctrl.dram.writeBursts                  740                       # Number of DRAM write bursts (Count)
system.mem_ctrl.dram.perBankRdBursts::0           587                       # Per bank write bursts (Count)
system.mem_ctrl.dram.perBankRdBursts::1           492                       # Per bank write bursts (Count)
system.mem_ctrl.dram.perBankRdBursts::2           377                       # Per bank write bursts (Count)
system.mem_ctrl.dram.perBankRdBursts::3           308                       # Per bank write bursts (Count)
system.mem_ctrl.dram.perBankRdBursts::4           243                       # Per bank write bursts (Count)
system.mem_ctrl.dram.perBankRdBursts::5           178                       # Per bank write bursts (Count)
system.mem_ctrl.dram.perBankRdBursts::6           199                       # Per bank write bursts (Count)
system.mem_ctrl.dram.perBankRdBursts::7           489                       # Per bank write bursts (Count)
system.mem_ctrl.dram.perBankRdBursts::8           623                       # Per bank write bursts (Count)
system.mem_ctrl.dram.perBankRdBursts::9           266                       # Per bank write bursts (Count)
system.mem_ctrl.dram.perBankRdBursts::10          267                       # Per bank write bursts (Count)
system.mem_ctrl.dram.perBankRdBursts::11          228                       # Per bank write bursts (Count)
system.mem_ctrl.dram.perBankRdBursts::12          147                       # Per bank write bursts (Count)
system.mem_ctrl.dram.perBankRdBursts::13          191                       # Per bank write bursts (Count)
system.mem_ctrl.dram.perBankRdBursts::14          540                       # Per bank write bursts (Count)
system.mem_ctrl.dram.perBankRdBursts::15          433                       # Per bank write bursts (Count)
system.mem_ctrl.dram.perBankWrBursts::0             0                       # Per bank write bursts (Count)
system.mem_ctrl.dram.perBankWrBursts::1            97                       # Per bank write bursts (Count)
system.mem_ctrl.dram.perBankWrBursts::2            42                       # Per bank write bursts (Count)
system.mem_ctrl.dram.perBankWrBursts::3            63                       # Per bank write bursts (Count)
system.mem_ctrl.dram.perBankWrBursts::4             0                       # Per bank write bursts (Count)
system.mem_ctrl.dram.perBankWrBursts::5            53                       # Per bank write bursts (Count)
system.mem_ctrl.dram.perBankWrBursts::6            15                       # Per bank write bursts (Count)
system.mem_ctrl.dram.perBankWrBursts::7            76                       # Per bank write bursts (Count)
system.mem_ctrl.dram.perBankWrBursts::8           209                       # Per bank write bursts (Count)
system.mem_ctrl.dram.perBankWrBursts::9             5                       # Per bank write bursts (Count)
system.mem_ctrl.dram.perBankWrBursts::10            0                       # Per bank write bursts (Count)
system.mem_ctrl.dram.perBankWrBursts::11            0                       # Per bank write bursts (Count)
system.mem_ctrl.dram.perBankWrBursts::12            0                       # Per bank write bursts (Count)
system.mem_ctrl.dram.perBankWrBursts::13            2                       # Per bank write bursts (Count)
system.mem_ctrl.dram.perBankWrBursts::14          115                       # Per bank write bursts (Count)
system.mem_ctrl.dram.perBankWrBursts::15           63                       # Per bank write bursts (Count)
system.mem_ctrl.dram.totQLat                 49441500                       # Total ticks spent queuing (Tick)
system.mem_ctrl.dram.totBusLat               27840000                       # Total ticks spent in databus transfers (Tick)
system.mem_ctrl.dram.totMemAccLat           153841500                       # Total ticks spent from burst creation until serviced by the DRAM (Tick)
system.mem_ctrl.dram.avgQLat                  8879.58                       # Average queueing delay per DRAM burst ((Tick/Count))
system.mem_ctrl.dram.avgBusLat                5000.00                       # Average bus latency per DRAM burst ((Tick/Count))
system.mem_ctrl.dram.avgMemAccLat            27629.58                       # Average memory access latency per DRAM burst ((Tick/Count))
system.mem_ctrl.dram.readRowHits                 4165                       # Number of row buffer hits during reads (Count)
system.mem_ctrl.dram.writeRowHits                 659                       # Number of row buffer hits during writes (Count)
system.mem_ctrl.dram.readRowHitRate             74.80                       # Row buffer hit rate for reads (Ratio)
system.mem_ctrl.dram.writeRowHitRate            89.05                       # Row buffer hit rate for writes (Ratio)
system.mem_ctrl.dram.bytesPerActivate::samples         1480                       # Bytes accessed per row activation (Byte)
system.mem_ctrl.dram.bytesPerActivate::mean   272.475676                       # Bytes accessed per row activation (Byte)
system.mem_ctrl.dram.bytesPerActivate::gmean   169.757115                       # Bytes accessed per row activation (Byte)
system.mem_ctrl.dram.bytesPerActivate::stdev   290.714186                       # Bytes accessed per row activation (Byte)
system.mem_ctrl.dram.bytesPerActivate::0-127          527     35.61%     35.61% # Bytes accessed per row activation (Byte)
system.mem_ctrl.dram.bytesPerActivate::128-255          436     29.46%     65.07% # Bytes accessed per row activation (Byte)
system.mem_ctrl.dram.bytesPerActivate::256-383          160     10.81%     75.88% # Bytes accessed per row activation (Byte)
system.mem_ctrl.dram.bytesPerActivate::384-511           84      5.68%     81.55% # Bytes accessed per row activation (Byte)
system.mem_ctrl.dram.bytesPerActivate::512-639           59      3.99%     85.54% # Bytes accessed per row activation (Byte)
system.mem_ctrl.dram.bytesPerActivate::640-767           57      3.85%     89.39% # Bytes accessed per row activation (Byte)
system.mem_ctrl.dram.bytesPerActivate::768-895           22      1.49%     90.88% # Bytes accessed per row activation (Byte)
system.mem_ctrl.dram.bytesPerActivate::896-1023           20      1.35%     92.23% # Bytes accessed per row activation (Byte)
system.mem_ctrl.dram.bytesPerActivate::1024-1151          115      7.77%    100.00% # Bytes accessed per row activation (Byte)
system.mem_ctrl.dram.bytesPerActivate::total         1480                       # Bytes accessed per row activation (Byte)
system.mem_ctrl.dram.bytesRead                 356352                       # Total number of bytes read from DRAM (Byte)
system.mem_ctrl.dram.bytesWritten               47360                       # Total number of bytes written to DRAM (Byte)
system.mem_ctrl.dram.avgRdBW                79.836148                       # Average DRAM read bandwidth in MiBytes/s ((Byte/Second))
system.mem_ctrl.dram.avgWrBW                10.610408                       # Average DRAM write bandwidth in MiBytes/s ((Byte/Second))
system.mem_ctrl.dram.peakBW                  12800.00                       # Theoretical peak bandwidth in MiByte/s ((Byte/Second))
system.mem_ctrl.dram.busUtil                     0.71                       # Data bus utilization in percentage (Ratio)
system.mem_ctrl.dram.busUtilRead                 0.62                       # Data bus utilization in percentage for reads (Ratio)
system.mem_ctrl.dram.busUtilWrite                0.08                       # Data bus utilization in percentage for writes (Ratio)
system.mem_ctrl.dram.pageHitRate                76.47                       # Row buffer hit rate, read and write combined (Ratio)
system.mem_ctrl.dram.power_state.pwrStateResidencyTicks::UNDEFINED   4463542000                       # Cumulative time (in ticks) in various power states (Tick)
system.mem_ctrl.dram.rank0.actEnergy          4912320                       # Energy for activate commands per rank (pJ) (Joule)
system.mem_ctrl.dram.rank0.preEnergy          2603370                       # Energy for precharge commands per rank (pJ) (Joule)
system.mem_ctrl.dram.rank0.readEnergy        20513220                       # Energy for read commands per rank (pJ) (Joule)
system.mem_ctrl.dram.rank0.writeEnergy        1806120                       # Energy for write commands per rank (pJ) (Joule)
system.mem_ctrl.dram.rank0.refreshEnergy 352188720.000000                       # Energy for refresh commands per rank (pJ) (Joule)
system.mem_ctrl.dram.rank0.actBackEnergy    445875090                       # Energy for active background per rank (pJ) (Joule)
system.mem_ctrl.dram.rank0.preBackEnergy   1338526560                       # Energy for precharge background per rank (pJ) (Joule)
system.mem_ctrl.dram.rank0.actPowerDownEnergy            0                       # Energy for active power-down per rank (pJ) (Joule)
system.mem_ctrl.dram.rank0.prePowerDownEnergy            0                       # Energy for precharge power-down per rank (pJ) (Joule)
system.mem_ctrl.dram.rank0.selfRefreshEnergy            0                       # Energy for self refresh per rank (pJ) (Joule)
system.mem_ctrl.dram.rank0.totalEnergy     2166425400                       # Total energy per rank (pJ) (Joule)
system.mem_ctrl.dram.rank0.averagePower    485.360147                       # Core power per rank (mW) (Watt)
system.mem_ctrl.dram.rank0.totalIdleTime            0                       # Total Idle time Per DRAM Rank (Tick)
system.mem_ctrl.dram.rank0.pwrStateTime::IDLE   3475518000                       # Time in different power states (Tick)
system.mem_ctrl.dram.rank0.pwrStateTime::REF    148980000                       # Time in different power states (Tick)
system.mem_ctrl.dram.rank0.pwrStateTime::SREF            0                       # Time in different power states (Tick)
system.mem_ctrl.dram.rank0.pwrStateTime::PRE_PDN            0                       # Time in different power states (Tick)
system.mem_ctrl.dram.rank0.pwrStateTime::ACT    839044000                       # Time in different power states (Tick)
system.mem_ctrl.dram.rank0.pwrStateTime::ACT_PDN            0                       # Time in different power states (Tick)
system.mem_ctrl.dram.rank1.actEnergy          5683440                       # Energy for activate commands per rank (pJ) (Joule)
system.mem_ctrl.dram.rank1.preEnergy          3013230                       # Energy for precharge commands per rank (pJ) (Joule)
system.mem_ctrl.dram.rank1.readEnergy        19242300                       # Energy for read commands per rank (pJ) (Joule)
system.mem_ctrl.dram.rank1.writeEnergy        2056680                       # Energy for write commands per rank (pJ) (Joule)
system.mem_ctrl.dram.rank1.refreshEnergy 352188720.000000                       # Energy for refresh commands per rank (pJ) (Joule)
system.mem_ctrl.dram.rank1.actBackEnergy    451277550                       # Energy for active background per rank (pJ) (Joule)
system.mem_ctrl.dram.rank1.preBackEnergy   1333977120                       # Energy for precharge background per rank (pJ) (Joule)
system.mem_ctrl.dram.rank1.actPowerDownEnergy            0                       # Energy for active power-down per rank (pJ) (Joule)
system.mem_ctrl.dram.rank1.prePowerDownEnergy            0                       # Energy for precharge power-down per rank (pJ) (Joule)
system.mem_ctrl.dram.rank1.selfRefreshEnergy            0                       # Energy for self refresh per rank (pJ) (Joule)
system.mem_ctrl.dram.rank1.totalEnergy     2167439040                       # Total energy per rank (pJ) (Joule)
system.mem_ctrl.dram.rank1.averagePower    485.587240                       # Core power per rank (mW) (Watt)
system.mem_ctrl.dram.rank1.totalIdleTime            0                       # Total Idle time Per DRAM Rank (Tick)
system.mem_ctrl.dram.rank1.pwrStateTime::IDLE   3463795500                       # Time in different power states (Tick)
system.mem_ctrl.dram.rank1.pwrStateTime::REF    148980000                       # Time in different power states (Tick)
system.mem_ctrl.dram.rank1.pwrStateTime::SREF            0                       # Time in different power states (Tick)
system.mem_ctrl.dram.rank1.pwrStateTime::PRE_PDN            0                       # Time in different power states (Tick)
system.mem_ctrl.dram.rank1.pwrStateTime::ACT    850766500                       # Time in different power states (Tick)
system.mem_ctrl.dram.rank1.pwrStateTime::ACT_PDN            0                       # Time in different power states (Tick)
system.mem_ctrl.power_state.pwrStateResidencyTicks::UNDEFINED   4463542000                       # Cumulative time (in ticks) in various power states (Tick)
system.workload.inst.arm                            0                       # number of arm instructions executed (Count)
system.workload.inst.quiesce                        0                       # number of quiesce instructions executed (Count)

---------- End Simulation Statistics   ----------
