
---------- Begin Simulation Statistics ----------
simSeconds                                   0.101031                       # Number of seconds simulated (Second)
simTicks                                 101031116000                       # Number of ticks simulated (Tick)
finalTick                                101031116000                       # Number of ticks from beginning of simulation (restored from checkpoints and never reset) (Tick)
simFreq                                  1000000000000                       # The number of ticks per simulated second ((Tick/Second))
hostSeconds                                    117.76                       # Real time elapsed on the host (Second)
hostTickRate                                857911270                       # The number of ticks simulated per host second (ticks/s) ((Tick/Second))
hostMemory                                     838348                       # Number of bytes of host memory used (Byte)
simInsts                                     39192878                       # Number of instructions simulated (Count)
simOps                                       63189185                       # Number of ops (including micro ops) simulated (Count)
hostInstRate                                   332808                       # Simulator instruction rate (inst/s) ((Count/Second))
hostOpRate                                     536573                       # Simulator op (including micro ops) rate (op/s) ((Count/Second))
system.caches.m_outstandReqHistSeqr::bucket_size            1                       (Unspecified)
system.caches.m_outstandReqHistSeqr::max_bucket            9                       (Unspecified)
system.caches.m_outstandReqHistSeqr::samples     65282528                       (Unspecified)
system.caches.m_outstandReqHistSeqr::mean     1.000002                       (Unspecified)
system.caches.m_outstandReqHistSeqr::gmean     1.000001                       (Unspecified)
system.caches.m_outstandReqHistSeqr::stdev     0.001459                       (Unspecified)
system.caches.m_outstandReqHistSeqr      |           0      0.00%      0.00% |    65282389    100.00%    100.00% |         139      0.00%    100.00% |           0      0.00%    100.00% |           0      0.00%    100.00% |           0      0.00%    100.00% |           0      0.00%    100.00% |           0      0.00%    100.00% |           0      0.00%    100.00% |           0      0.00%    100.00% (Unspecified)
system.caches.m_outstandReqHistSeqr::total     65282528                       (Unspecified)
system.caches.m_latencyHistSeqr::bucket_size           64                       (Unspecified)
system.caches.m_latencyHistSeqr::max_bucket          639                       (Unspecified)
system.caches.m_latencyHistSeqr::samples     65282528                       (Unspecified)
system.caches.m_latencyHistSeqr::mean        1.015701                       (Unspecified)
system.caches.m_latencyHistSeqr::gmean       1.000957                       (Unspecified)
system.caches.m_latencyHistSeqr::stdev       1.143577                       (Unspecified)
system.caches.m_latencyHistSeqr          |    65277921     99.99%     99.99% |        4219      0.01%    100.00% |         144      0.00%    100.00% |          70      0.00%    100.00% |         115      0.00%    100.00% |          59      0.00%    100.00% |           0      0.00%    100.00% |           0      0.00%    100.00% |           0      0.00%    100.00% |           0      0.00%    100.00% (Unspecified)
system.caches.m_latencyHistSeqr::total       65282528                       (Unspecified)
system.caches.m_hitLatencyHistSeqr::bucket_size            1                       (Unspecified)
system.caches.m_hitLatencyHistSeqr::max_bucket            9                       (Unspecified)
system.caches.m_hitLatencyHistSeqr::samples     65267631                       (Unspecified)
system.caches.m_hitLatencyHistSeqr::mean            1                       (Unspecified)
system.caches.m_hitLatencyHistSeqr::gmean            1                       (Unspecified)
system.caches.m_hitLatencyHistSeqr       |           0      0.00%      0.00% |    65267631    100.00%    100.00% |           0      0.00%    100.00% |           0      0.00%    100.00% |           0      0.00%    100.00% |           0      0.00%    100.00% |           0      0.00%    100.00% |           0      0.00%    100.00% |           0      0.00%    100.00% |           0      0.00%    100.00% (Unspecified)
system.caches.m_hitLatencyHistSeqr::total     65267631                       (Unspecified)
system.caches.m_missLatencyHistSeqr::bucket_size           64                       (Unspecified)
system.caches.m_missLatencyHistSeqr::max_bucket          639                       (Unspecified)
system.caches.m_missLatencyHistSeqr::samples        14897                       (Unspecified)
system.caches.m_missLatencyHistSeqr::mean    69.805397                       (Unspecified)
system.caches.m_missLatencyHistSeqr::gmean    66.269351                       (Unspecified)
system.caches.m_missLatencyHistSeqr::stdev    31.590291                       (Unspecified)
system.caches.m_missLatencyHistSeqr      |       10290     69.07%     69.07% |        4219     28.32%     97.40% |         144      0.97%     98.36% |          70      0.47%     98.83% |         115      0.77%     99.60% |          59      0.40%    100.00% |           0      0.00%    100.00% |           0      0.00%    100.00% |           0      0.00%    100.00% |           0      0.00%    100.00% (Unspecified)
system.caches.m_missLatencyHistSeqr::total        14897                       (Unspecified)
system.caches.L1Cache_Controller.Load    |     1597502      2.68%      2.68% |    43994995     73.91%     76.59% |    13935257     23.41%    100.00% |           0      0.00%    100.00% (Unspecified)
system.caches.L1Cache_Controller.Load::total     59527754                       (Unspecified)
system.caches.L1Cache_Controller.Store   |      199136      3.46%      3.46% |     4317155     75.02%     78.48% |     1238483     21.52%    100.00% |           0      0.00%    100.00% (Unspecified)
system.caches.L1Cache_Controller.Store::total      5754774                       (Unspecified)
system.caches.L1Cache_Controller.Replacement |     2065275     46.96%     46.96% |     1484446     33.75%     80.71% |      848604     19.29%    100.00% |           0      0.00%    100.00% (Unspecified)
system.caches.L1Cache_Controller.Replacement::total      4398325                       (Unspecified)
system.caches.L1Cache_Controller.FwdGetS |          14     48.28%     48.28% |          10     34.48%     82.76% |           5     17.24%    100.00% |           0      0.00%    100.00% (Unspecified)
system.caches.L1Cache_Controller.FwdGetS::total           29                       (Unspecified)
system.caches.L1Cache_Controller.FwdGetM |           7     46.67%     46.67% |           5     33.33%     80.00% |           3     20.00%    100.00% |           0      0.00%    100.00% (Unspecified)
system.caches.L1Cache_Controller.FwdGetM::total           15                       (Unspecified)
system.caches.L1Cache_Controller.Inv     |          20     47.62%     47.62% |          11     26.19%     73.81% |          11     26.19%    100.00% |           0      0.00%    100.00% (Unspecified)
system.caches.L1Cache_Controller.Inv::total           42                       (Unspecified)
system.caches.L1Cache_Controller.PutAck  |        6454     46.96%     46.96% |        4639     33.75%     80.71% |        2652     19.29%    100.00% |           0      0.00%    100.00% (Unspecified)
system.caches.L1Cache_Controller.PutAck::total        13745                       (Unspecified)
system.caches.L1Cache_Controller.DataDirNoAcks |        6888     46.37%     46.37% |        5014     33.76%     80.13% |        2951     19.87%    100.00% |           0      0.00%    100.00% (Unspecified)
system.caches.L1Cache_Controller.DataDirNoAcks::total        14853                       (Unspecified)
system.caches.L1Cache_Controller.DataOwner |           7     15.91%     15.91% |          16     36.36%     52.27% |          21     47.73%    100.00% |           0      0.00%    100.00% (Unspecified)
system.caches.L1Cache_Controller.DataOwner::total           44                       (Unspecified)
system.caches.L1Cache_Controller.InvAck  |           7     16.67%     16.67% |          23     54.76%     71.43% |          12     28.57%    100.00% |           0      0.00%    100.00% (Unspecified)
system.caches.L1Cache_Controller.InvAck::total           42                       (Unspecified)
system.caches.L1Cache_Controller.I.Load  |        5830     45.02%     45.02% |        4490     34.67%     79.70% |        2629     20.30%    100.00% |           0      0.00%    100.00% (Unspecified)
system.caches.L1Cache_Controller.I.Load::total        12949                       (Unspecified)
system.caches.L1Cache_Controller.I.Store |         907     56.62%     56.62% |         415     25.91%     82.52% |         280     17.48%    100.00% |           0      0.00%    100.00% (Unspecified)
system.caches.L1Cache_Controller.I.Store::total         1602                       (Unspecified)
system.caches.L1Cache_Controller.IS_D.DataDirNoAcks |        5826     45.09%     45.09% |        4478     34.66%     79.75% |        2616     20.25%    100.00% |           0      0.00%    100.00% (Unspecified)
system.caches.L1Cache_Controller.IS_D.DataDirNoAcks::total        12920                       (Unspecified)
system.caches.L1Cache_Controller.IS_D.DataOwner |           4     13.79%     13.79% |          12     41.38%     55.17% |          13     44.83%    100.00% |           0      0.00%    100.00% (Unspecified)
system.caches.L1Cache_Controller.IS_D.DataOwner::total           29                       (Unspecified)
system.caches.L1Cache_Controller.IM_AD.DataDirNoAcks |         904     56.96%     56.96% |         411     25.90%     82.86% |         272     17.14%    100.00% |           0      0.00%    100.00% (Unspecified)
system.caches.L1Cache_Controller.IM_AD.DataDirNoAcks::total         1587                       (Unspecified)
system.caches.L1Cache_Controller.IM_AD.DataOwner |           3     20.00%     20.00% |           4     26.67%     46.67% |           8     53.33%    100.00% |           0      0.00%    100.00% (Unspecified)
system.caches.L1Cache_Controller.IM_AD.DataOwner::total           15                       (Unspecified)
system.caches.L1Cache_Controller.IM_AD.InvAck |           1     33.33%     33.33% |           2     66.67%    100.00% |           0      0.00%    100.00% |           0      0.00%    100.00% (Unspecified)
system.caches.L1Cache_Controller.IM_AD.InvAck::total            3                       (Unspecified)
system.caches.L1Cache_Controller.S.Load  |     1437827      2.93%      2.93% |    36641212     74.78%     77.71% |    10920951     22.29%    100.00% |           0      0.00%    100.00% (Unspecified)
system.caches.L1Cache_Controller.S.Load::total     48999990                       (Unspecified)
system.caches.L1Cache_Controller.S.Store |         158     45.66%     45.66% |         125     36.13%     81.79% |          63     18.21%    100.00% |           0      0.00%    100.00% (Unspecified)
system.caches.L1Cache_Controller.S.Store::total          346                       (Unspecified)
system.caches.L1Cache_Controller.S.Replacement |        5453     45.63%     45.63% |        4153     34.75%     80.38% |        2345     19.62%    100.00% |           0      0.00%    100.00% (Unspecified)
system.caches.L1Cache_Controller.S.Replacement::total        11951                       (Unspecified)
system.caches.L1Cache_Controller.S.Inv   |          20     47.62%     47.62% |          11     26.19%     73.81% |          11     26.19%    100.00% |           0      0.00%    100.00% (Unspecified)
system.caches.L1Cache_Controller.S.Inv::total           42                       (Unspecified)
system.caches.L1Cache_Controller.SM_AD.DataDirNoAcks |         158     45.66%     45.66% |         125     36.13%     81.79% |          63     18.21%    100.00% |           0      0.00%    100.00% (Unspecified)
system.caches.L1Cache_Controller.SM_AD.DataDirNoAcks::total          346                       (Unspecified)
system.caches.L1Cache_Controller.SM_AD.InvAck |           6     15.38%     15.38% |          21     53.85%     69.23% |          12     30.77%    100.00% |           0      0.00%    100.00% (Unspecified)
system.caches.L1Cache_Controller.SM_AD.InvAck::total           39                       (Unspecified)
system.caches.L1Cache_Controller.M.Load  |      153845      1.46%      1.46% |     7349293     69.89%     71.36% |     3011677     28.64%    100.00% |           0      0.00%    100.00% (Unspecified)
system.caches.L1Cache_Controller.M.Load::total     10514815                       (Unspecified)
system.caches.L1Cache_Controller.M.Store |      198071      3.44%      3.44% |     4316615     75.03%     78.48% |     1238140     21.52%    100.00% |           0      0.00%    100.00% (Unspecified)
system.caches.L1Cache_Controller.M.Store::total      5752826                       (Unspecified)
system.caches.L1Cache_Controller.M.Replacement |        1001     55.80%     55.80% |         486     27.09%     82.89% |         307     17.11%    100.00% |           0      0.00%    100.00% (Unspecified)
system.caches.L1Cache_Controller.M.Replacement::total         1794                       (Unspecified)
system.caches.L1Cache_Controller.M.FwdGetS |          14     48.28%     48.28% |          10     34.48%     82.76% |           5     17.24%    100.00% |           0      0.00%    100.00% (Unspecified)
system.caches.L1Cache_Controller.M.FwdGetS::total           29                       (Unspecified)
system.caches.L1Cache_Controller.M.FwdGetM |           7     46.67%     46.67% |           5     33.33%     80.00% |           3     20.00%    100.00% |           0      0.00%    100.00% (Unspecified)
system.caches.L1Cache_Controller.M.FwdGetM::total           15                       (Unspecified)
system.caches.L1Cache_Controller.MI_A.Replacement |      319318     55.80%     55.80% |      155019     27.09%     82.89% |       97915     17.11%    100.00% |           0      0.00%    100.00% (Unspecified)
system.caches.L1Cache_Controller.MI_A.Replacement::total       572252                       (Unspecified)
system.caches.L1Cache_Controller.MI_A.PutAck |        1001     55.80%     55.80% |         486     27.09%     82.89% |         307     17.11%    100.00% |           0      0.00%    100.00% (Unspecified)
system.caches.L1Cache_Controller.MI_A.PutAck::total         1794                       (Unspecified)
system.caches.L1Cache_Controller.SI_A.Replacement |     1739503     45.63%     45.63% |     1324788     34.75%     80.38% |      748037     19.62%    100.00% |           0      0.00%    100.00% (Unspecified)
system.caches.L1Cache_Controller.SI_A.Replacement::total      3812328                       (Unspecified)
system.caches.L1Cache_Controller.SI_A.PutAck |        5453     45.63%     45.63% |        4153     34.75%     80.38% |        2345     19.62%    100.00% |           0      0.00%    100.00% (Unspecified)
system.caches.L1Cache_Controller.SI_A.PutAck::total        11951                       (Unspecified)
system.caches.Directory_Controller.GetS         61205      0.00%      0.00% (Unspecified)
system.caches.Directory_Controller.GetM          1948      0.00%      0.00% (Unspecified)
system.caches.Directory_Controller.PutSNotLast         2841      0.00%      0.00% (Unspecified)
system.caches.Directory_Controller.PutSLast         9110      0.00%      0.00% (Unspecified)
system.caches.Directory_Controller.PutMOwner         1794      0.00%      0.00% (Unspecified)
system.caches.Directory_Controller.Data            29      0.00%      0.00% (Unspecified)
system.caches.Directory_Controller.MemData        14853      0.00%      0.00% (Unspecified)
system.caches.Directory_Controller.MemAck         1823      0.00%      0.00% (Unspecified)
system.caches.Directory_Controller.I.GetS         9915      0.00%      0.00% (Unspecified)
system.caches.Directory_Controller.I.GetM         1584      0.00%      0.00% (Unspecified)
system.caches.Directory_Controller.S.GetS         3005      0.00%      0.00% (Unspecified)
system.caches.Directory_Controller.S.GetM          349      0.00%      0.00% (Unspecified)
system.caches.Directory_Controller.S.PutSNotLast         2813      0.00%      0.00% (Unspecified)
system.caches.Directory_Controller.S.PutSLast         9110      0.00%      0.00% (Unspecified)
system.caches.Directory_Controller.M.GetS           29      0.00%      0.00% (Unspecified)
system.caches.Directory_Controller.M.GetM           15      0.00%      0.00% (Unspecified)
system.caches.Directory_Controller.M.PutMOwner         1794      0.00%      0.00% (Unspecified)
system.caches.Directory_Controller.S_D.Data           29      0.00%      0.00% (Unspecified)
system.caches.Directory_Controller.S_m.GetS        48256      0.00%      0.00% (Unspecified)
system.caches.Directory_Controller.S_m.PutSNotLast           28      0.00%      0.00% (Unspecified)
system.caches.Directory_Controller.S_m.MemData        12920      0.00%      0.00% (Unspecified)
system.caches.Directory_Controller.M_m.MemData         1933      0.00%      0.00% (Unspecified)
system.caches.Directory_Controller.MI_m.MemAck         1794      0.00%      0.00% (Unspecified)
system.caches.Directory_Controller.SS_m.MemAck           29      0.00%      0.00% (Unspecified)
system.caches.MachineType.L1Cache.miss_mach_latency_hist_seqr::bucket_size            4                       (Unspecified)
system.caches.MachineType.L1Cache.miss_mach_latency_hist_seqr::max_bucket           39                       (Unspecified)
system.caches.MachineType.L1Cache.miss_mach_latency_hist_seqr::samples           44                       (Unspecified)
system.caches.MachineType.L1Cache.miss_mach_latency_hist_seqr::mean    20.613636                       (Unspecified)
system.caches.MachineType.L1Cache.miss_mach_latency_hist_seqr::gmean    20.031956                       (Unspecified)
system.caches.MachineType.L1Cache.miss_mach_latency_hist_seqr::stdev     4.984702                       (Unspecified)
system.caches.MachineType.L1Cache.miss_mach_latency_hist_seqr |           0      0.00%      0.00% |           0      0.00%      0.00% |           0      0.00%      0.00% |           0      0.00%      0.00% |          24     54.55%     54.55% |           0      0.00%     54.55% |          20     45.45%    100.00% |           0      0.00%    100.00% |           0      0.00%    100.00% |           0      0.00%    100.00% (Unspecified)
system.caches.MachineType.L1Cache.miss_mach_latency_hist_seqr::total           44                       (Unspecified)
system.caches.MachineType.L1Cache.incomplete_times_seqr           44                       (Unspecified)
system.caches.MachineType.Directory.miss_mach_latency_hist_seqr::bucket_size           64                      
system.caches.MachineType.Directory.miss_mach_latency_hist_seqr::max_bucket          639                      
system.caches.MachineType.Directory.miss_mach_latency_hist_seqr::samples        14853                      
system.caches.MachineType.Directory.miss_mach_latency_hist_seqr::mean    69.951121                      
system.caches.MachineType.Directory.miss_mach_latency_hist_seqr::gmean    66.504637                      
system.caches.MachineType.Directory.miss_mach_latency_hist_seqr::stdev    31.522070                      
system.caches.MachineType.Directory.miss_mach_latency_hist_seqr |       10246     68.98%     68.98% |        4219     28.41%     97.39% |         144      0.97%     98.36% |          70      0.47%     98.83% |         115      0.77%     99.60% |          59      0.40%    100.00% |           0      0.00%    100.00% |           0      0.00%    100.00% |           0      0.00%    100.00% |           0      0.00%    100.00% (Unspecified)
system.caches.MachineType.Directory.miss_mach_latency_hist_seqr::total        14853                      
system.caches.MachineType.Directory.miss_latency_hist_seqr.issue_to_initial_request::bucket_size            1                      
system.caches.MachineType.Directory.miss_latency_hist_seqr.issue_to_initial_request::max_bucket            9                      
system.caches.MachineType.Directory.miss_latency_hist_seqr.issue_to_initial_request::samples            1                      
system.caches.MachineType.Directory.miss_latency_hist_seqr.issue_to_initial_request::stdev          nan                      
system.caches.MachineType.Directory.miss_latency_hist_seqr.issue_to_initial_request |           1    100.00%    100.00% |           0      0.00%    100.00% |           0      0.00%    100.00% |           0      0.00%    100.00% |           0      0.00%    100.00% |           0      0.00%    100.00% |           0      0.00%    100.00% |           0      0.00%    100.00% |           0      0.00%    100.00% |           0      0.00%    100.00% (Unspecified)
system.caches.MachineType.Directory.miss_latency_hist_seqr.issue_to_initial_request::total            1                      
system.caches.MachineType.Directory.miss_latency_hist_seqr.initial_to_forward::bucket_size            1                      
system.caches.MachineType.Directory.miss_latency_hist_seqr.initial_to_forward::max_bucket            9                      
system.caches.MachineType.Directory.miss_latency_hist_seqr.initial_to_forward::samples            1                      
system.caches.MachineType.Directory.miss_latency_hist_seqr.initial_to_forward::stdev          nan                      
system.caches.MachineType.Directory.miss_latency_hist_seqr.initial_to_forward |           1    100.00%    100.00% |           0      0.00%    100.00% |           0      0.00%    100.00% |           0      0.00%    100.00% |           0      0.00%    100.00% |           0      0.00%    100.00% |           0      0.00%    100.00% |           0      0.00%    100.00% |           0      0.00%    100.00% |           0      0.00%    100.00% (Unspecified)
system.caches.MachineType.Directory.miss_latency_hist_seqr.initial_to_forward::total            1                      
system.caches.MachineType.Directory.miss_latency_hist_seqr.forward_to_first_response::bucket_size            1                      
system.caches.MachineType.Directory.miss_latency_hist_seqr.forward_to_first_response::max_bucket            9                      
system.caches.MachineType.Directory.miss_latency_hist_seqr.forward_to_first_response::samples            1                      
system.caches.MachineType.Directory.miss_latency_hist_seqr.forward_to_first_response::stdev          nan                      
system.caches.MachineType.Directory.miss_latency_hist_seqr.forward_to_first_response |           1    100.00%    100.00% |           0      0.00%    100.00% |           0      0.00%    100.00% |           0      0.00%    100.00% |           0      0.00%    100.00% |           0      0.00%    100.00% |           0      0.00%    100.00% |           0      0.00%    100.00% |           0      0.00%    100.00% |           0      0.00%    100.00% (Unspecified)
system.caches.MachineType.Directory.miss_latency_hist_seqr.forward_to_first_response::total            1                      
system.caches.MachineType.Directory.miss_latency_hist_seqr.first_response_to_completion::bucket_size            8                      
system.caches.MachineType.Directory.miss_latency_hist_seqr.first_response_to_completion::max_bucket           79                      
system.caches.MachineType.Directory.miss_latency_hist_seqr.first_response_to_completion::samples            1                      
system.caches.MachineType.Directory.miss_latency_hist_seqr.first_response_to_completion::mean           73                      
system.caches.MachineType.Directory.miss_latency_hist_seqr.first_response_to_completion::gmean    73.000000                      
system.caches.MachineType.Directory.miss_latency_hist_seqr.first_response_to_completion::stdev          nan                      
system.caches.MachineType.Directory.miss_latency_hist_seqr.first_response_to_completion |           0      0.00%      0.00% |           0      0.00%      0.00% |           0      0.00%      0.00% |           0      0.00%      0.00% |           0      0.00%      0.00% |           0      0.00%      0.00% |           0      0.00%      0.00% |           0      0.00%      0.00% |           0      0.00%      0.00% |           1    100.00%    100.00% (Unspecified)
system.caches.MachineType.Directory.miss_latency_hist_seqr.first_response_to_completion::total            1                      
system.caches.MachineType.Directory.incomplete_times_seqr        14852                       (Unspecified)
system.caches.RequestType.LD.latency_hist_seqr::bucket_size           64                       (Unspecified)
system.caches.RequestType.LD.latency_hist_seqr::max_bucket          639                       (Unspecified)
system.caches.RequestType.LD.latency_hist_seqr::samples     10893232                       (Unspecified)
system.caches.RequestType.LD.latency_hist_seqr::mean     1.041440                       (Unspecified)
system.caches.RequestType.LD.latency_hist_seqr::gmean     1.002517                       (Unspecified)
system.caches.RequestType.LD.latency_hist_seqr::stdev     1.866864                       (Unspecified)
system.caches.RequestType.LD.latency_hist_seqr |    10890973     99.98%     99.98% |        2096      0.02%    100.00% |          57      0.00%    100.00% |          26      0.00%    100.00% |          51      0.00%    100.00% |          29      0.00%    100.00% |           0      0.00%    100.00% |           0      0.00%    100.00% |           0      0.00%    100.00% |           0      0.00%    100.00% (Unspecified)
system.caches.RequestType.LD.latency_hist_seqr::total     10893232                       (Unspecified)
system.caches.RequestType.LD.hit_latency_hist_seqr::bucket_size            1                       (Unspecified)
system.caches.RequestType.LD.hit_latency_hist_seqr::max_bucket            9                       (Unspecified)
system.caches.RequestType.LD.hit_latency_hist_seqr::samples     10886703                       (Unspecified)
system.caches.RequestType.LD.hit_latency_hist_seqr::mean            1                       (Unspecified)
system.caches.RequestType.LD.hit_latency_hist_seqr::gmean            1                       (Unspecified)
system.caches.RequestType.LD.hit_latency_hist_seqr |           0      0.00%      0.00% |    10886703    100.00%    100.00% |           0      0.00%    100.00% |           0      0.00%    100.00% |           0      0.00%    100.00% |           0      0.00%    100.00% |           0      0.00%    100.00% |           0      0.00%    100.00% |           0      0.00%    100.00% |           0      0.00%    100.00% (Unspecified)
system.caches.RequestType.LD.hit_latency_hist_seqr::total     10886703                       (Unspecified)
system.caches.RequestType.LD.miss_latency_hist_seqr::bucket_size           64                       (Unspecified)
system.caches.RequestType.LD.miss_latency_hist_seqr::max_bucket          639                       (Unspecified)
system.caches.RequestType.LD.miss_latency_hist_seqr::samples         6529                       (Unspecified)
system.caches.RequestType.LD.miss_latency_hist_seqr::mean    70.140297                       (Unspecified)
system.caches.RequestType.LD.miss_latency_hist_seqr::gmean    66.291888                       (Unspecified)
system.caches.RequestType.LD.miss_latency_hist_seqr::stdev    32.209485                       (Unspecified)
system.caches.RequestType.LD.miss_latency_hist_seqr |        4270     65.40%     65.40% |        2096     32.10%     97.50% |          57      0.87%     98.38% |          26      0.40%     98.77% |          51      0.78%     99.56% |          29      0.44%    100.00% |           0      0.00%    100.00% |           0      0.00%    100.00% |           0      0.00%    100.00% |           0      0.00%    100.00% (Unspecified)
system.caches.RequestType.LD.miss_latency_hist_seqr::total         6529                       (Unspecified)
system.caches.RequestType.ST.latency_hist_seqr::bucket_size           64                       (Unspecified)
system.caches.RequestType.ST.latency_hist_seqr::max_bucket          639                       (Unspecified)
system.caches.RequestType.ST.latency_hist_seqr::samples      5324559                       (Unspecified)
system.caches.RequestType.ST.latency_hist_seqr::mean     1.022661                       (Unspecified)
system.caches.RequestType.ST.latency_hist_seqr::gmean     1.001419                       (Unspecified)
system.caches.RequestType.ST.latency_hist_seqr::stdev     1.353453                       (Unspecified)
system.caches.RequestType.ST.latency_hist_seqr |     5323917     99.99%     99.99% |         589      0.01%    100.00% |          27      0.00%    100.00% |           9      0.00%    100.00% |          14      0.00%    100.00% |           3      0.00%    100.00% |           0      0.00%    100.00% |           0      0.00%    100.00% |           0      0.00%    100.00% |           0      0.00%    100.00% (Unspecified)
system.caches.RequestType.ST.latency_hist_seqr::total      5324559                       (Unspecified)
system.caches.RequestType.ST.hit_latency_hist_seqr::bucket_size            1                       (Unspecified)
system.caches.RequestType.ST.hit_latency_hist_seqr::max_bucket            9                       (Unspecified)
system.caches.RequestType.ST.hit_latency_hist_seqr::samples      5322735                       (Unspecified)
system.caches.RequestType.ST.hit_latency_hist_seqr::mean            1                       (Unspecified)
system.caches.RequestType.ST.hit_latency_hist_seqr::gmean            1                       (Unspecified)
system.caches.RequestType.ST.hit_latency_hist_seqr |           0      0.00%      0.00% |     5322735    100.00%    100.00% |           0      0.00%    100.00% |           0      0.00%    100.00% |           0      0.00%    100.00% |           0      0.00%    100.00% |           0      0.00%    100.00% |           0      0.00%    100.00% |           0      0.00%    100.00% |           0      0.00%    100.00% (Unspecified)
system.caches.RequestType.ST.hit_latency_hist_seqr::total      5322735                       (Unspecified)
system.caches.RequestType.ST.miss_latency_hist_seqr::bucket_size           64                       (Unspecified)
system.caches.RequestType.ST.miss_latency_hist_seqr::max_bucket          639                       (Unspecified)
system.caches.RequestType.ST.miss_latency_hist_seqr::samples         1824                       (Unspecified)
system.caches.RequestType.ST.miss_latency_hist_seqr::mean    67.151864                       (Unspecified)
system.caches.RequestType.ST.miss_latency_hist_seqr::gmean    62.853870                       (Unspecified)
system.caches.RequestType.ST.miss_latency_hist_seqr::stdev    31.199225                       (Unspecified)
system.caches.RequestType.ST.miss_latency_hist_seqr |        1182     64.80%     64.80% |         589     32.29%     97.09% |          27      1.48%     98.57% |           9      0.49%     99.07% |          14      0.77%     99.84% |           3      0.16%    100.00% |           0      0.00%    100.00% |           0      0.00%    100.00% |           0      0.00%    100.00% |           0      0.00%    100.00% (Unspecified)
system.caches.RequestType.ST.miss_latency_hist_seqr::total         1824                       (Unspecified)
system.caches.RequestType.IFETCH.latency_hist_seqr::bucket_size           64                       (Unspecified)
system.caches.RequestType.IFETCH.latency_hist_seqr::max_bucket          639                       (Unspecified)
system.caches.RequestType.IFETCH.latency_hist_seqr::samples     48634522                       (Unspecified)
system.caches.RequestType.IFETCH.latency_hist_seqr::mean     1.009164                       (Unspecified)
system.caches.RequestType.IFETCH.latency_hist_seqr::gmean     1.000556                       (Unspecified)
system.caches.RequestType.IFETCH.latency_hist_seqr::stdev     0.872070                       (Unspecified)
system.caches.RequestType.IFETCH.latency_hist_seqr |    48632844    100.00%    100.00% |        1509      0.00%    100.00% |          60      0.00%    100.00% |          35      0.00%    100.00% |          48      0.00%    100.00% |          26      0.00%    100.00% |           0      0.00%    100.00% |           0      0.00%    100.00% |           0      0.00%    100.00% |           0      0.00%    100.00% (Unspecified)
system.caches.RequestType.IFETCH.latency_hist_seqr::total     48634522                       (Unspecified)
system.caches.RequestType.IFETCH.hit_latency_hist_seqr::bucket_size            1                       (Unspecified)
system.caches.RequestType.IFETCH.hit_latency_hist_seqr::max_bucket            9                       (Unspecified)
system.caches.RequestType.IFETCH.hit_latency_hist_seqr::samples     48628102                       (Unspecified)
system.caches.RequestType.IFETCH.hit_latency_hist_seqr::mean            1                       (Unspecified)
system.caches.RequestType.IFETCH.hit_latency_hist_seqr::gmean            1                       (Unspecified)
system.caches.RequestType.IFETCH.hit_latency_hist_seqr |           0      0.00%      0.00% |    48628102    100.00%    100.00% |           0      0.00%    100.00% |           0      0.00%    100.00% |           0      0.00%    100.00% |           0      0.00%    100.00% |           0      0.00%    100.00% |           0      0.00%    100.00% |           0      0.00%    100.00% |           0      0.00%    100.00% (Unspecified)
system.caches.RequestType.IFETCH.hit_latency_hist_seqr::total     48628102                       (Unspecified)
system.caches.RequestType.IFETCH.miss_latency_hist_seqr::bucket_size           64                       (Unspecified)
system.caches.RequestType.IFETCH.miss_latency_hist_seqr::max_bucket          639                       (Unspecified)
system.caches.RequestType.IFETCH.miss_latency_hist_seqr::samples         6420                       (Unspecified)
system.caches.RequestType.IFETCH.miss_latency_hist_seqr::mean    70.421340                       (Unspecified)
system.caches.RequestType.IFETCH.miss_latency_hist_seqr::gmean    67.582028                       (Unspecified)
system.caches.RequestType.IFETCH.miss_latency_hist_seqr::stdev    30.702639                       (Unspecified)
system.caches.RequestType.IFETCH.miss_latency_hist_seqr |        4742     73.86%     73.86% |        1509     23.50%     97.37% |          60      0.93%     98.30% |          35      0.55%     98.85% |          48      0.75%     99.60% |          26      0.40%    100.00% |           0      0.00%    100.00% |           0      0.00%    100.00% |           0      0.00%    100.00% |           0      0.00%    100.00% (Unspecified)
system.caches.RequestType.IFETCH.miss_latency_hist_seqr::total         6420                       (Unspecified)
system.caches.RequestType.RMW_Read.latency_hist_seqr::bucket_size           64                       (Unspecified)
system.caches.RequestType.RMW_Read.latency_hist_seqr::max_bucket          639                       (Unspecified)
system.caches.RequestType.RMW_Read.latency_hist_seqr::samples       397061                       (Unspecified)
system.caches.RequestType.RMW_Read.latency_hist_seqr::mean     1.012106                       (Unspecified)
system.caches.RequestType.RMW_Read.latency_hist_seqr::gmean     1.000788                       (Unspecified)
system.caches.RequestType.RMW_Read.latency_hist_seqr::stdev     1.069912                       (Unspecified)
system.caches.RequestType.RMW_Read.latency_hist_seqr |      397044    100.00%    100.00% |          15      0.00%    100.00% |           0      0.00%    100.00% |           0      0.00%    100.00% |           1      0.00%    100.00% |           1      0.00%    100.00% |           0      0.00%    100.00% |           0      0.00%    100.00% |           0      0.00%    100.00% |           0      0.00%    100.00% (Unspecified)
system.caches.RequestType.RMW_Read.latency_hist_seqr::total       397061                       (Unspecified)
system.caches.RequestType.RMW_Read.hit_latency_hist_seqr::bucket_size            1                       (Unspecified)
system.caches.RequestType.RMW_Read.hit_latency_hist_seqr::max_bucket            9                       (Unspecified)
system.caches.RequestType.RMW_Read.hit_latency_hist_seqr::samples       396983                       (Unspecified)
system.caches.RequestType.RMW_Read.hit_latency_hist_seqr::mean            1                       (Unspecified)
system.caches.RequestType.RMW_Read.hit_latency_hist_seqr::gmean            1                       (Unspecified)
system.caches.RequestType.RMW_Read.hit_latency_hist_seqr |           0      0.00%      0.00% |      396983    100.00%    100.00% |           0      0.00%    100.00% |           0      0.00%    100.00% |           0      0.00%    100.00% |           0      0.00%    100.00% |           0      0.00%    100.00% |           0      0.00%    100.00% |           0      0.00%    100.00% |           0      0.00%    100.00% (Unspecified)
system.caches.RequestType.RMW_Read.hit_latency_hist_seqr::total       396983                       (Unspecified)
system.caches.RequestType.RMW_Read.miss_latency_hist_seqr::bucket_size           64                       (Unspecified)
system.caches.RequestType.RMW_Read.miss_latency_hist_seqr::max_bucket          639                       (Unspecified)
system.caches.RequestType.RMW_Read.miss_latency_hist_seqr::samples           78                       (Unspecified)
system.caches.RequestType.RMW_Read.miss_latency_hist_seqr::mean    62.628205                       (Unspecified)
system.caches.RequestType.RMW_Read.miss_latency_hist_seqr::gmean    55.146931                       (Unspecified)
system.caches.RequestType.RMW_Read.miss_latency_hist_seqr::stdev    45.345745                       (Unspecified)
system.caches.RequestType.RMW_Read.miss_latency_hist_seqr |          61     78.21%     78.21% |          15     19.23%     97.44% |           0      0.00%     97.44% |           0      0.00%     97.44% |           1      1.28%     98.72% |           1      1.28%    100.00% |           0      0.00%    100.00% |           0      0.00%    100.00% |           0      0.00%    100.00% |           0      0.00%    100.00% (Unspecified)
system.caches.RequestType.RMW_Read.miss_latency_hist_seqr::total           78                       (Unspecified)
system.caches.RequestType.Locked_RMW_Read.latency_hist_seqr::bucket_size           32                       (Unspecified)
system.caches.RequestType.Locked_RMW_Read.latency_hist_seqr::max_bucket          319                       (Unspecified)
system.caches.RequestType.Locked_RMW_Read.latency_hist_seqr::samples        16577                       (Unspecified)
system.caches.RequestType.Locked_RMW_Read.latency_hist_seqr::mean     1.146227                       (Unspecified)
system.caches.RequestType.Locked_RMW_Read.latency_hist_seqr::gmean     1.010650                       (Unspecified)
system.caches.RequestType.Locked_RMW_Read.latency_hist_seqr::stdev     3.513604                       (Unspecified)
system.caches.RequestType.Locked_RMW_Read.latency_hist_seqr |       16543     99.79%     99.79% |          23      0.14%     99.93% |          10      0.06%     99.99% |           0      0.00%     99.99% |           0      0.00%     99.99% |           0      0.00%     99.99% |           0      0.00%     99.99% |           0      0.00%     99.99% |           0      0.00%     99.99% |           1      0.01%    100.00% (Unspecified)
system.caches.RequestType.Locked_RMW_Read.latency_hist_seqr::total        16577                       (Unspecified)
system.caches.RequestType.Locked_RMW_Read.hit_latency_hist_seqr::bucket_size            1                       (Unspecified)
system.caches.RequestType.Locked_RMW_Read.hit_latency_hist_seqr::max_bucket            9                       (Unspecified)
system.caches.RequestType.Locked_RMW_Read.hit_latency_hist_seqr::samples        16531                       (Unspecified)
system.caches.RequestType.Locked_RMW_Read.hit_latency_hist_seqr::mean            1                       (Unspecified)
system.caches.RequestType.Locked_RMW_Read.hit_latency_hist_seqr::gmean            1                       (Unspecified)
system.caches.RequestType.Locked_RMW_Read.hit_latency_hist_seqr |           0      0.00%      0.00% |       16531    100.00%    100.00% |           0      0.00%    100.00% |           0      0.00%    100.00% |           0      0.00%    100.00% |           0      0.00%    100.00% |           0      0.00%    100.00% |           0      0.00%    100.00% |           0      0.00%    100.00% |           0      0.00%    100.00% (Unspecified)
system.caches.RequestType.Locked_RMW_Read.hit_latency_hist_seqr::total        16531                       (Unspecified)
system.caches.RequestType.Locked_RMW_Read.miss_latency_hist_seqr::bucket_size           32                       (Unspecified)
system.caches.RequestType.Locked_RMW_Read.miss_latency_hist_seqr::max_bucket          319                       (Unspecified)
system.caches.RequestType.Locked_RMW_Read.miss_latency_hist_seqr::samples           46                       (Unspecified)
system.caches.RequestType.Locked_RMW_Read.miss_latency_hist_seqr::mean    53.695652                       (Unspecified)
system.caches.RequestType.Locked_RMW_Read.miss_latency_hist_seqr::gmean    45.498732                       (Unspecified)
system.caches.RequestType.Locked_RMW_Read.miss_latency_hist_seqr::stdev    41.434752                       (Unspecified)
system.caches.RequestType.Locked_RMW_Read.miss_latency_hist_seqr |          12     26.09%     26.09% |          23     50.00%     76.09% |          10     21.74%     97.83% |           0      0.00%     97.83% |           0      0.00%     97.83% |           0      0.00%     97.83% |           0      0.00%     97.83% |           0      0.00%     97.83% |           0      0.00%     97.83% |           1      2.17%    100.00% (Unspecified)
system.caches.RequestType.Locked_RMW_Read.miss_latency_hist_seqr::total           46                       (Unspecified)
system.caches.RequestType.Locked_RMW_Write.latency_hist_seqr::bucket_size            1                       (Unspecified)
system.caches.RequestType.Locked_RMW_Write.latency_hist_seqr::max_bucket            9                       (Unspecified)
system.caches.RequestType.Locked_RMW_Write.latency_hist_seqr::samples        16577                       (Unspecified)
system.caches.RequestType.Locked_RMW_Write.latency_hist_seqr::mean            1                       (Unspecified)
system.caches.RequestType.Locked_RMW_Write.latency_hist_seqr::gmean            1                       (Unspecified)
system.caches.RequestType.Locked_RMW_Write.latency_hist_seqr |           0      0.00%      0.00% |       16577    100.00%    100.00% |           0      0.00%    100.00% |           0      0.00%    100.00% |           0      0.00%    100.00% |           0      0.00%    100.00% |           0      0.00%    100.00% |           0      0.00%    100.00% |           0      0.00%    100.00% |           0      0.00%    100.00% (Unspecified)
system.caches.RequestType.Locked_RMW_Write.latency_hist_seqr::total        16577                       (Unspecified)
system.caches.RequestType.Locked_RMW_Write.hit_latency_hist_seqr::bucket_size            1                       (Unspecified)
system.caches.RequestType.Locked_RMW_Write.hit_latency_hist_seqr::max_bucket            9                       (Unspecified)
system.caches.RequestType.Locked_RMW_Write.hit_latency_hist_seqr::samples        16577                       (Unspecified)
system.caches.RequestType.Locked_RMW_Write.hit_latency_hist_seqr::mean            1                       (Unspecified)
system.caches.RequestType.Locked_RMW_Write.hit_latency_hist_seqr::gmean            1                       (Unspecified)
system.caches.RequestType.Locked_RMW_Write.hit_latency_hist_seqr |           0      0.00%      0.00% |       16577    100.00%    100.00% |           0      0.00%    100.00% |           0      0.00%    100.00% |           0      0.00%    100.00% |           0      0.00%    100.00% |           0      0.00%    100.00% |           0      0.00%    100.00% |           0      0.00%    100.00% |           0      0.00%    100.00% (Unspecified)
system.caches.RequestType.Locked_RMW_Write.hit_latency_hist_seqr::total        16577                       (Unspecified)
system.caches.RequestTypeMachineType.LD.L1Cache.miss_type_mach_latency_hist_seqr::bucket_size            4                       (Unspecified)
system.caches.RequestTypeMachineType.LD.L1Cache.miss_type_mach_latency_hist_seqr::max_bucket           39                       (Unspecified)
system.caches.RequestTypeMachineType.LD.L1Cache.miss_type_mach_latency_hist_seqr::samples           29                       (Unspecified)
system.caches.RequestTypeMachineType.LD.L1Cache.miss_type_mach_latency_hist_seqr::mean    21.931034                       (Unspecified)
system.caches.RequestTypeMachineType.LD.L1Cache.miss_type_mach_latency_hist_seqr::gmean    21.354409                       (Unspecified)
system.caches.RequestTypeMachineType.LD.L1Cache.miss_type_mach_latency_hist_seqr::stdev     4.942028                       (Unspecified)
system.caches.RequestTypeMachineType.LD.L1Cache.miss_type_mach_latency_hist_seqr |           0      0.00%      0.00% |           0      0.00%      0.00% |           0      0.00%      0.00% |           0      0.00%      0.00% |          12     41.38%     41.38% |           0      0.00%     41.38% |          17     58.62%    100.00% |           0      0.00%    100.00% |           0      0.00%    100.00% |           0      0.00%    100.00% (Unspecified)
system.caches.RequestTypeMachineType.LD.L1Cache.miss_type_mach_latency_hist_seqr::total           29                       (Unspecified)
system.caches.RequestTypeMachineType.LD.Directory.miss_type_mach_latency_hist_seqr::bucket_size           64                       (Unspecified)
system.caches.RequestTypeMachineType.LD.Directory.miss_type_mach_latency_hist_seqr::max_bucket          639                       (Unspecified)
system.caches.RequestTypeMachineType.LD.Directory.miss_type_mach_latency_hist_seqr::samples         6500                       (Unspecified)
system.caches.RequestTypeMachineType.LD.Directory.miss_type_mach_latency_hist_seqr::mean    70.355385                       (Unspecified)
system.caches.RequestTypeMachineType.LD.Directory.miss_type_mach_latency_hist_seqr::gmean    66.627780                       (Unspecified)
system.caches.RequestTypeMachineType.LD.Directory.miss_type_mach_latency_hist_seqr::stdev    32.117876                       (Unspecified)
system.caches.RequestTypeMachineType.LD.Directory.miss_type_mach_latency_hist_seqr |        4241     65.25%     65.25% |        2096     32.25%     97.49% |          57      0.88%     98.37% |          26      0.40%     98.77% |          51      0.78%     99.55% |          29      0.45%    100.00% |           0      0.00%    100.00% |           0      0.00%    100.00% |           0      0.00%    100.00% |           0      0.00%    100.00% (Unspecified)
system.caches.RequestTypeMachineType.LD.Directory.miss_type_mach_latency_hist_seqr::total         6500                       (Unspecified)
system.caches.RequestTypeMachineType.ST.L1Cache.miss_type_mach_latency_hist_seqr::bucket_size            4                       (Unspecified)
system.caches.RequestTypeMachineType.ST.L1Cache.miss_type_mach_latency_hist_seqr::max_bucket           39                       (Unspecified)
system.caches.RequestTypeMachineType.ST.L1Cache.miss_type_mach_latency_hist_seqr::samples           10                       (Unspecified)
system.caches.RequestTypeMachineType.ST.L1Cache.miss_type_mach_latency_hist_seqr::mean    17.100000                       (Unspecified)
system.caches.RequestTypeMachineType.ST.L1Cache.miss_type_mach_latency_hist_seqr::gmean    16.898113                       (Unspecified)
system.caches.RequestTypeMachineType.ST.L1Cache.miss_type_mach_latency_hist_seqr::stdev     3.142893                       (Unspecified)
system.caches.RequestTypeMachineType.ST.L1Cache.miss_type_mach_latency_hist_seqr |           0      0.00%      0.00% |           0      0.00%      0.00% |           0      0.00%      0.00% |           0      0.00%      0.00% |           9     90.00%     90.00% |           0      0.00%     90.00% |           1     10.00%    100.00% |           0      0.00%    100.00% |           0      0.00%    100.00% |           0      0.00%    100.00% (Unspecified)
system.caches.RequestTypeMachineType.ST.L1Cache.miss_type_mach_latency_hist_seqr::total           10                       (Unspecified)
system.caches.RequestTypeMachineType.ST.Directory.miss_type_mach_latency_hist_seqr::bucket_size           64                       (Unspecified)
system.caches.RequestTypeMachineType.ST.Directory.miss_type_mach_latency_hist_seqr::max_bucket          639                       (Unspecified)
system.caches.RequestTypeMachineType.ST.Directory.miss_type_mach_latency_hist_seqr::samples         1814                       (Unspecified)
system.caches.RequestTypeMachineType.ST.Directory.miss_type_mach_latency_hist_seqr::mean    67.427784                       (Unspecified)
system.caches.RequestTypeMachineType.ST.Directory.miss_type_mach_latency_hist_seqr::gmean    63.310679                       (Unspecified)
system.caches.RequestTypeMachineType.ST.Directory.miss_type_mach_latency_hist_seqr::stdev    31.061511                       (Unspecified)
system.caches.RequestTypeMachineType.ST.Directory.miss_type_mach_latency_hist_seqr |        1172     64.61%     64.61% |         589     32.47%     97.08% |          27      1.49%     98.57% |           9      0.50%     99.06% |          14      0.77%     99.83% |           3      0.17%    100.00% |           0      0.00%    100.00% |           0      0.00%    100.00% |           0      0.00%    100.00% |           0      0.00%    100.00% (Unspecified)
system.caches.RequestTypeMachineType.ST.Directory.miss_type_mach_latency_hist_seqr::total         1814                       (Unspecified)
system.caches.RequestTypeMachineType.IFETCH.Directory.miss_type_mach_latency_hist_seqr::bucket_size           64                       (Unspecified)
system.caches.RequestTypeMachineType.IFETCH.Directory.miss_type_mach_latency_hist_seqr::max_bucket          639                       (Unspecified)
system.caches.RequestTypeMachineType.IFETCH.Directory.miss_type_mach_latency_hist_seqr::samples         6420                       (Unspecified)
system.caches.RequestTypeMachineType.IFETCH.Directory.miss_type_mach_latency_hist_seqr::mean    70.421340                       (Unspecified)
system.caches.RequestTypeMachineType.IFETCH.Directory.miss_type_mach_latency_hist_seqr::gmean    67.582028                       (Unspecified)
system.caches.RequestTypeMachineType.IFETCH.Directory.miss_type_mach_latency_hist_seqr::stdev    30.702639                       (Unspecified)
system.caches.RequestTypeMachineType.IFETCH.Directory.miss_type_mach_latency_hist_seqr |        4742     73.86%     73.86% |        1509     23.50%     97.37% |          60      0.93%     98.30% |          35      0.55%     98.85% |          48      0.75%     99.60% |          26      0.40%    100.00% |           0      0.00%    100.00% |           0      0.00%    100.00% |           0      0.00%    100.00% |           0      0.00%    100.00% (Unspecified)
system.caches.RequestTypeMachineType.IFETCH.Directory.miss_type_mach_latency_hist_seqr::total         6420                       (Unspecified)
system.caches.RequestTypeMachineType.RMW_Read.L1Cache.miss_type_mach_latency_hist_seqr::bucket_size            4                       (Unspecified)
system.caches.RequestTypeMachineType.RMW_Read.L1Cache.miss_type_mach_latency_hist_seqr::max_bucket           39                       (Unspecified)
system.caches.RequestTypeMachineType.RMW_Read.L1Cache.miss_type_mach_latency_hist_seqr::samples            2                       (Unspecified)
system.caches.RequestTypeMachineType.RMW_Read.L1Cache.miss_type_mach_latency_hist_seqr::mean           21                       (Unspecified)
system.caches.RequestTypeMachineType.RMW_Read.L1Cache.miss_type_mach_latency_hist_seqr::gmean    20.396078                       (Unspecified)
system.caches.RequestTypeMachineType.RMW_Read.L1Cache.miss_type_mach_latency_hist_seqr::stdev     7.071068                       (Unspecified)
system.caches.RequestTypeMachineType.RMW_Read.L1Cache.miss_type_mach_latency_hist_seqr |           0      0.00%      0.00% |           0      0.00%      0.00% |           0      0.00%      0.00% |           0      0.00%      0.00% |           1     50.00%     50.00% |           0      0.00%     50.00% |           1     50.00%    100.00% |           0      0.00%    100.00% |           0      0.00%    100.00% |           0      0.00%    100.00% (Unspecified)
system.caches.RequestTypeMachineType.RMW_Read.L1Cache.miss_type_mach_latency_hist_seqr::total            2                       (Unspecified)
system.caches.RequestTypeMachineType.RMW_Read.Directory.miss_type_mach_latency_hist_seqr::bucket_size           64                       (Unspecified)
system.caches.RequestTypeMachineType.RMW_Read.Directory.miss_type_mach_latency_hist_seqr::max_bucket          639                       (Unspecified)
system.caches.RequestTypeMachineType.RMW_Read.Directory.miss_type_mach_latency_hist_seqr::samples           76                       (Unspecified)
system.caches.RequestTypeMachineType.RMW_Read.Directory.miss_type_mach_latency_hist_seqr::mean    63.723684                       (Unspecified)
system.caches.RequestTypeMachineType.RMW_Read.Directory.miss_type_mach_latency_hist_seqr::gmean    56.609472                       (Unspecified)
system.caches.RequestTypeMachineType.RMW_Read.Directory.miss_type_mach_latency_hist_seqr::stdev    45.419995                       (Unspecified)
system.caches.RequestTypeMachineType.RMW_Read.Directory.miss_type_mach_latency_hist_seqr |          59     77.63%     77.63% |          15     19.74%     97.37% |           0      0.00%     97.37% |           0      0.00%     97.37% |           1      1.32%     98.68% |           1      1.32%    100.00% |           0      0.00%    100.00% |           0      0.00%    100.00% |           0      0.00%    100.00% |           0      0.00%    100.00% (Unspecified)
system.caches.RequestTypeMachineType.RMW_Read.Directory.miss_type_mach_latency_hist_seqr::total           76                       (Unspecified)
system.caches.RequestTypeMachineType.Locked_RMW_Read.L1Cache.miss_type_mach_latency_hist_seqr::bucket_size            4                       (Unspecified)
system.caches.RequestTypeMachineType.Locked_RMW_Read.L1Cache.miss_type_mach_latency_hist_seqr::max_bucket           39                       (Unspecified)
system.caches.RequestTypeMachineType.Locked_RMW_Read.L1Cache.miss_type_mach_latency_hist_seqr::samples            3                       (Unspecified)
system.caches.RequestTypeMachineType.Locked_RMW_Read.L1Cache.miss_type_mach_latency_hist_seqr::mean    19.333333                       (Unspecified)
system.caches.RequestTypeMachineType.Locked_RMW_Read.L1Cache.miss_type_mach_latency_hist_seqr::gmean    18.810678                       (Unspecified)
system.caches.RequestTypeMachineType.Locked_RMW_Read.L1Cache.miss_type_mach_latency_hist_seqr::stdev     5.773503                       (Unspecified)
system.caches.RequestTypeMachineType.Locked_RMW_Read.L1Cache.miss_type_mach_latency_hist_seqr |           0      0.00%      0.00% |           0      0.00%      0.00% |           0      0.00%      0.00% |           0      0.00%      0.00% |           2     66.67%     66.67% |           0      0.00%     66.67% |           1     33.33%    100.00% |           0      0.00%    100.00% |           0      0.00%    100.00% |           0      0.00%    100.00% (Unspecified)
system.caches.RequestTypeMachineType.Locked_RMW_Read.L1Cache.miss_type_mach_latency_hist_seqr::total            3                       (Unspecified)
system.caches.RequestTypeMachineType.Locked_RMW_Read.Directory.miss_type_mach_latency_hist_seqr::bucket_size           32                       (Unspecified)
system.caches.RequestTypeMachineType.Locked_RMW_Read.Directory.miss_type_mach_latency_hist_seqr::max_bucket          319                       (Unspecified)
system.caches.RequestTypeMachineType.Locked_RMW_Read.Directory.miss_type_mach_latency_hist_seqr::samples           43                       (Unspecified)
system.caches.RequestTypeMachineType.Locked_RMW_Read.Directory.miss_type_mach_latency_hist_seqr::mean    56.093023                       (Unspecified)
system.caches.RequestTypeMachineType.Locked_RMW_Read.Directory.miss_type_mach_latency_hist_seqr::gmean    48.390680                       (Unspecified)
system.caches.RequestTypeMachineType.Locked_RMW_Read.Directory.miss_type_mach_latency_hist_seqr::stdev    41.804997                       (Unspecified)
system.caches.RequestTypeMachineType.Locked_RMW_Read.Directory.miss_type_mach_latency_hist_seqr |           9     20.93%     20.93% |          23     53.49%     74.42% |          10     23.26%     97.67% |           0      0.00%     97.67% |           0      0.00%     97.67% |           0      0.00%     97.67% |           0      0.00%     97.67% |           0      0.00%     97.67% |           0      0.00%     97.67% |           1      2.33%    100.00% (Unspecified)
system.caches.RequestTypeMachineType.Locked_RMW_Read.Directory.miss_type_mach_latency_hist_seqr::total           43                       (Unspecified)
system.caches.controllers0.fullyBusyCycles        64540                       # cycles for which number of transistions == max transitions (Unspecified)
system.caches.controllers0.cacheMemory.m_demand_hits            0                       # Number of cache demand hits (Unspecified)
system.caches.controllers0.cacheMemory.m_demand_misses            0                       # Number of cache demand misses (Unspecified)
system.caches.controllers0.cacheMemory.m_demand_accesses            0                       # Number of cache demand accesses (Unspecified)
system.caches.controllers0.forwardFromDir.m_buf_msgs     0.000064                       # Average number of messages in buffer (Unspecified)
system.caches.controllers0.forwardFromDir.m_stall_time  4999.209729                       # Average number of cycles messages are stalled in this MB (Unspecified)
system.caches.controllers0.mandatoryQueue.m_buf_msgs     0.018422                       # Average number of messages in buffer (Unspecified)
system.caches.controllers0.mandatoryQueue.m_stall_time  1039.798620                       # Average number of cycles messages are stalled in this MB (Unspecified)
system.caches.controllers0.power_state.pwrStateResidencyTicks::UNDEFINED 101031116000                       # Cumulative time (in ticks) in various power states (Tick)
system.caches.controllers0.requestToDir.m_buf_msgs     0.000132                       # Average number of messages in buffer (Unspecified)
system.caches.controllers0.requestToDir.m_stall_time   999.999980                       # Average number of cycles messages are stalled in this MB (Unspecified)
system.caches.controllers0.responseFromDirOrSibling.m_buf_msgs     0.000068                       # Average number of messages in buffer (Unspecified)
system.caches.controllers0.responseFromDirOrSibling.m_stall_time  4999.996387                       # Average number of cycles messages are stalled in this MB (Unspecified)
system.caches.controllers0.responseToDirOrSibling.m_buf_msgs     0.000001                       # Average number of messages in buffer (Unspecified)
system.caches.controllers0.responseToDirOrSibling.m_stall_time   960.139043                       # Average number of cycles messages are stalled in this MB (Unspecified)
system.caches.controllers1.fullyBusyCycles        46390                       # cycles for which number of transistions == max transitions (Unspecified)
system.caches.controllers1.cacheMemory.m_demand_hits            0                       # Number of cache demand hits (Unspecified)
system.caches.controllers1.cacheMemory.m_demand_misses            0                       # Number of cache demand misses (Unspecified)
system.caches.controllers1.cacheMemory.m_demand_accesses            0                       # Number of cache demand accesses (Unspecified)
system.caches.controllers1.forwardFromDir.m_buf_msgs     0.000046                       # Average number of messages in buffer (Unspecified)
system.caches.controllers1.forwardFromDir.m_stall_time  4800.272967                       # Average number of cycles messages are stalled in this MB (Unspecified)
system.caches.controllers1.mandatoryQueue.m_buf_msgs     0.478650                       # Average number of messages in buffer (Unspecified)
system.caches.controllers1.mandatoryQueue.m_stall_time   989.045504                       # Average number of cycles messages are stalled in this MB (Unspecified)
system.caches.controllers1.power_state.pwrStateResidencyTicks::UNDEFINED 101031116000                       # Cumulative time (in ticks) in various power states (Tick)
system.caches.controllers1.requestToDir.m_buf_msgs     0.000096                       # Average number of messages in buffer (Unspecified)
system.caches.controllers1.requestToDir.m_stall_time   960.139745                       # Average number of cycles messages are stalled in this MB (Unspecified)
system.caches.controllers1.responseFromDirOrSibling.m_buf_msgs     0.000050                       # Average number of messages in buffer (Unspecified)
system.caches.controllers1.responseFromDirOrSibling.m_stall_time  4800.696253                       # Average number of cycles messages are stalled in this MB (Unspecified)
system.caches.controllers1.responseToDirOrSibling.m_buf_msgs     0.000000                       # Average number of messages in buffer (Unspecified)
system.caches.controllers1.responseToDirOrSibling.m_stall_time   960.014220                       # Average number of cycles messages are stalled in this MB (Unspecified)
system.caches.controllers2.fullyBusyCycles        26520                       # cycles for which number of transistions == max transitions (Unspecified)
system.caches.controllers2.cacheMemory.m_demand_hits            0                       # Number of cache demand hits (Unspecified)
system.caches.controllers2.cacheMemory.m_demand_misses            0                       # Number of cache demand misses (Unspecified)
system.caches.controllers2.cacheMemory.m_demand_accesses            0                       # Number of cache demand accesses (Unspecified)
system.caches.controllers2.forwardFromDir.m_buf_msgs     0.000026                       # Average number of messages in buffer (Unspecified)
system.caches.controllers2.forwardFromDir.m_stall_time  4799.870666                       # Average number of cycles messages are stalled in this MB (Unspecified)
system.caches.controllers2.mandatoryQueue.m_buf_msgs     0.150451                       # Average number of messages in buffer (Unspecified)
system.caches.controllers2.mandatoryQueue.m_stall_time   975.659380                       # Average number of cycles messages are stalled in this MB (Unspecified)
system.caches.controllers2.power_state.pwrStateResidencyTicks::UNDEFINED 101031116000                       # Cumulative time (in ticks) in various power states (Tick)
system.caches.controllers2.requestToDir.m_buf_msgs     0.000056                       # Average number of messages in buffer (Unspecified)
system.caches.controllers2.requestToDir.m_stall_time   960.019832                       # Average number of cycles messages are stalled in this MB (Unspecified)
system.caches.controllers2.responseFromDirOrSibling.m_buf_msgs     0.000030                       # Average number of messages in buffer (Unspecified)
system.caches.controllers2.responseFromDirOrSibling.m_stall_time  4800.096685                       # Average number of cycles messages are stalled in this MB (Unspecified)
system.caches.controllers2.responseToDirOrSibling.m_buf_msgs     0.000000                       # Average number of messages in buffer (Unspecified)
system.caches.controllers2.responseToDirOrSibling.m_stall_time   959.974123                       # Average number of cycles messages are stalled in this MB (Unspecified)
system.caches.controllers3.cacheMemory.m_demand_hits            0                       # Number of cache demand hits (Unspecified)
system.caches.controllers3.cacheMemory.m_demand_misses            0                       # Number of cache demand misses (Unspecified)
system.caches.controllers3.cacheMemory.m_demand_accesses            0                       # Number of cache demand accesses (Unspecified)
system.caches.controllers3.power_state.pwrStateResidencyTicks::UNDEFINED 101031116000                       # Cumulative time (in ticks) in various power states (Tick)
system.caches.controllers4.fullyBusyCycles         1508                       # cycles for which number of transistions == max transitions (Unspecified)
system.caches.controllers4.forwardToCache.m_buf_msgs     0.000140                       # Average number of messages in buffer (Unspecified)
system.caches.controllers4.forwardToCache.m_stall_time   999.979571                       # Average number of cycles messages are stalled in this MB (Unspecified)
system.caches.controllers4.power_state.pwrStateResidencyTicks::UNDEFINED 101031116000                       # Cumulative time (in ticks) in various power states (Tick)
system.caches.controllers4.requestFromCache.m_buf_msgs     0.000298                       # Average number of messages in buffer (Unspecified)
system.caches.controllers4.requestFromCache.m_stall_time  5008.725985                       # Average number of cycles messages are stalled in this MB (Unspecified)
system.caches.controllers4.requestToMemory.m_buf_msgs     0.000165                       # Average number of messages in buffer (Unspecified)
system.caches.controllers4.requestToMemory.m_stall_time  1000.011897                       # Average number of cycles messages are stalled in this MB (Unspecified)
system.caches.controllers4.responseFromCache.m_buf_msgs     0.000000                       # Average number of messages in buffer (Unspecified)
system.caches.controllers4.responseFromCache.m_stall_time  4800.695016                       # Average number of cycles messages are stalled in this MB (Unspecified)
system.caches.controllers4.responseFromMemory.m_buf_msgs     0.000214                       # Average number of messages in buffer (Unspecified)
system.caches.controllers4.responseFromMemory.m_stall_time   999.999327                       # Average number of cycles messages are stalled in this MB (Unspecified)
system.caches.controllers4.responseToCache.m_buf_msgs     0.000147                       # Average number of messages in buffer (Unspecified)
system.caches.controllers4.responseToCache.m_stall_time   999.999317                       # Average number of cycles messages are stalled in this MB (Unspecified)
system.caches.network.msg_count.Control         81442                       (Unspecified)
system.caches.network.msg_byte.Control         651536                       (Unspecified)
system.caches.network.msg_count.Data            33440                       (Unspecified)
system.caches.network.msg_byte.Data           2407680                       (Unspecified)
system.caches.network.int_link_buffers11.m_buf_msgs     0.000000                       # Average number of messages in buffer (Unspecified)
system.caches.network.int_link_buffers11.m_stall_time  2880.417069                       # Average number of cycles messages are stalled in this MB (Unspecified)
system.caches.network.int_link_buffers14.m_buf_msgs     0.000000                       # Average number of messages in buffer (Unspecified)
system.caches.network.int_link_buffers14.m_stall_time  2880.042600                       # Average number of cycles messages are stalled in this MB (Unspecified)
system.caches.network.int_link_buffers17.m_buf_msgs     0.000000                       # Average number of messages in buffer (Unspecified)
system.caches.network.int_link_buffers17.m_stall_time  2880.041620                       # Average number of cycles messages are stalled in this MB (Unspecified)
system.caches.network.int_link_buffers2.m_buf_msgs     0.000000                       # Average number of messages in buffer (Unspecified)
system.caches.network.int_link_buffers2.m_stall_time  2880.417069                       # Average number of cycles messages are stalled in this MB (Unspecified)
system.caches.network.int_link_buffers21.m_buf_msgs     0.000096                       # Average number of messages in buffer (Unspecified)
system.caches.network.int_link_buffers21.m_stall_time  2880.419177                       # Average number of cycles messages are stalled in this MB (Unspecified)
system.caches.network.int_link_buffers23.m_buf_msgs     0.000000                       # Average number of messages in buffer (Unspecified)
system.caches.network.int_link_buffers23.m_stall_time  2880.042600                       # Average number of cycles messages are stalled in this MB (Unspecified)
system.caches.network.int_link_buffers26.m_buf_msgs     0.000000                       # Average number of messages in buffer (Unspecified)
system.caches.network.int_link_buffers26.m_stall_time     0.812393                       # Average number of cycles messages are stalled in this MB (Unspecified)
system.caches.network.int_link_buffers29.m_buf_msgs     0.000000                       # Average number of messages in buffer (Unspecified)
system.caches.network.int_link_buffers29.m_stall_time  2879.922310                       # Average number of cycles messages are stalled in this MB (Unspecified)
system.caches.network.int_link_buffers33.m_buf_msgs     0.000056                       # Average number of messages in buffer (Unspecified)
system.caches.network.int_link_buffers33.m_stall_time  2880.059436                       # Average number of cycles messages are stalled in this MB (Unspecified)
system.caches.network.int_link_buffers35.m_buf_msgs     0.000000                       # Average number of messages in buffer (Unspecified)
system.caches.network.int_link_buffers35.m_stall_time    12.576759                       # Average number of cycles messages are stalled in this MB (Unspecified)
system.caches.network.int_link_buffers49.m_buf_msgs     0.000064                       # Average number of messages in buffer (Unspecified)
system.caches.network.int_link_buffers49.m_stall_time  2999.525928                       # Average number of cycles messages are stalled in this MB (Unspecified)
system.caches.network.int_link_buffers5.m_buf_msgs     0.000000                       # Average number of messages in buffer (Unspecified)
system.caches.network.int_link_buffers5.m_stall_time  2880.057328                       # Average number of cycles messages are stalled in this MB (Unspecified)
system.caches.network.int_link_buffers50.m_buf_msgs     0.000068                       # Average number of messages in buffer (Unspecified)
system.caches.network.int_link_buffers50.m_stall_time  2999.997892                       # Average number of cycles messages are stalled in this MB (Unspecified)
system.caches.network.int_link_buffers52.m_buf_msgs     0.000046                       # Average number of messages in buffer (Unspecified)
system.caches.network.int_link_buffers52.m_stall_time  2880.163840                       # Average number of cycles messages are stalled in this MB (Unspecified)
system.caches.network.int_link_buffers53.m_buf_msgs     0.000050                       # Average number of messages in buffer (Unspecified)
system.caches.network.int_link_buffers53.m_stall_time  2880.417811                       # Average number of cycles messages are stalled in this MB (Unspecified)
system.caches.network.int_link_buffers55.m_buf_msgs     0.000026                       # Average number of messages in buffer (Unspecified)
system.caches.network.int_link_buffers55.m_stall_time  2879.922459                       # Average number of cycles messages are stalled in this MB (Unspecified)
system.caches.network.int_link_buffers56.m_buf_msgs     0.000029                       # Average number of messages in buffer (Unspecified)
system.caches.network.int_link_buffers56.m_stall_time  2880.058070                       # Average number of cycles messages are stalled in this MB (Unspecified)
system.caches.network.int_link_buffers9.m_buf_msgs     0.000132                       # Average number of messages in buffer (Unspecified)
system.caches.network.int_link_buffers9.m_stall_time  2999.999881                       # Average number of cycles messages are stalled in this MB (Unspecified)
system.caches.network.power_state.pwrStateResidencyTicks::UNDEFINED 101031116000                       # Cumulative time (in ticks) in various power states (Tick)
system.caches.network.routers0.percent_links_utilized     0.008933                       (Unspecified)
system.caches.network.routers0.msg_count.Control::0        12348                       (Unspecified)
system.caches.network.routers0.msg_count.Control::1         6495                       (Unspecified)
system.caches.network.routers0.msg_count.Control::2           27                       (Unspecified)
system.caches.network.routers0.msg_bytes.Control::0        98784                       (Unspecified)
system.caches.network.routers0.msg_bytes.Control::1        51960                       (Unspecified)
system.caches.network.routers0.msg_bytes.Control::2          216                       (Unspecified)
system.caches.network.routers0.msg_count.Data::0         1001                       (Unspecified)
system.caches.network.routers0.msg_count.Data::2         6930                       (Unspecified)
system.caches.network.routers0.msg_bytes.Data::0        72072                       (Unspecified)
system.caches.network.routers0.msg_bytes.Data::2       498960                       (Unspecified)
system.caches.network.routers0.port_buffers1.m_buf_msgs     0.000064                       # Average number of messages in buffer (Unspecified)
system.caches.network.routers0.port_buffers1.m_stall_time  3999.367838                       # Average number of cycles messages are stalled in this MB (Unspecified)
system.caches.network.routers0.port_buffers12.m_buf_msgs     0.000132                       # Average number of messages in buffer (Unspecified)
system.caches.network.routers0.port_buffers12.m_stall_time  1999.999941                       # Average number of cycles messages are stalled in this MB (Unspecified)
system.caches.network.routers0.port_buffers14.m_buf_msgs     0.000000                       # Average number of messages in buffer (Unspecified)
system.caches.network.routers0.port_buffers14.m_stall_time  1920.278066                       # Average number of cycles messages are stalled in this MB (Unspecified)
system.caches.network.routers0.port_buffers2.m_buf_msgs     0.000068                       # Average number of messages in buffer (Unspecified)
system.caches.network.routers0.port_buffers2.m_stall_time  3999.997149                       # Average number of cycles messages are stalled in this MB (Unspecified)
system.caches.network.routers0.port_buffers5.m_buf_msgs     0.000000                       # Average number of messages in buffer (Unspecified)
system.caches.network.routers0.port_buffers5.m_stall_time  1920.278066                       # Average number of cycles messages are stalled in this MB (Unspecified)
system.caches.network.routers0.port_buffers8.m_buf_msgs     0.000000                       # Average number of messages in buffer (Unspecified)
system.caches.network.routers0.port_buffers8.m_stall_time  1920.038239                       # Average number of cycles messages are stalled in this MB (Unspecified)
system.caches.network.routers0.power_state.pwrStateResidencyTicks::UNDEFINED 101031116000                       # Cumulative time (in ticks) in various power states (Tick)
system.caches.network.routers0.throttle00.link_utilization     0.033929                       (Unspecified)
system.caches.network.routers0.throttle00.msg_count.Control::1         6495                       (Unspecified)
system.caches.network.routers0.throttle00.msg_count.Control::2            7                       (Unspecified)
system.caches.network.routers0.throttle00.msg_bytes.Control::1        51960                       (Unspecified)
system.caches.network.routers0.throttle00.msg_bytes.Control::2           56                       (Unspecified)
system.caches.network.routers0.throttle00.msg_count.Data::2         6895                       (Unspecified)
system.caches.network.routers0.throttle00.msg_bytes.Data::2       496440                       (Unspecified)
system.caches.network.routers0.throttle01.link_utilization     0.000051                       (Unspecified)
system.caches.network.routers0.throttle01.msg_count.Control::2           14                       (Unspecified)
system.caches.network.routers0.throttle01.msg_bytes.Control::2          112                       (Unspecified)
system.caches.network.routers0.throttle01.msg_count.Data::2           10                       (Unspecified)
system.caches.network.routers0.throttle01.msg_bytes.Data::2          720                       (Unspecified)
system.caches.network.routers0.throttle02.link_utilization     0.000052                       (Unspecified)
system.caches.network.routers0.throttle02.msg_count.Control::2            6                       (Unspecified)
system.caches.network.routers0.throttle02.msg_bytes.Control::2           48                       (Unspecified)
system.caches.network.routers0.throttle02.msg_count.Data::2           11                       (Unspecified)
system.caches.network.routers0.throttle02.msg_bytes.Data::2          792                       (Unspecified)
system.caches.network.routers0.throttle03.link_utilization            0                       (Unspecified)
system.caches.network.routers0.throttle04.link_utilization     0.010632                       (Unspecified)
system.caches.network.routers0.throttle04.msg_count.Control::0        12348                       (Unspecified)
system.caches.network.routers0.throttle04.msg_bytes.Control::0        98784                       (Unspecified)
system.caches.network.routers0.throttle04.msg_count.Data::0         1001                       (Unspecified)
system.caches.network.routers0.throttle04.msg_count.Data::2           14                       (Unspecified)
system.caches.network.routers0.throttle04.msg_bytes.Data::0        72072                       (Unspecified)
system.caches.network.routers0.throttle04.msg_bytes.Data::2         1008                       (Unspecified)
system.caches.network.routers1.percent_links_utilized     0.006310                       (Unspecified)
system.caches.network.routers1.msg_count.Control::0         9183                       (Unspecified)
system.caches.network.routers1.msg_count.Control::1         4665                       (Unspecified)
system.caches.network.routers1.msg_count.Control::2           34                       (Unspecified)
[...]
system.mem_ctrl.rdPerTurnAround::0-63              46     41.44%     41.44% # Reads before turning the bus around for writes (Count)
system.mem_ctrl.rdPerTurnAround::64-127            37     33.33%     74.77% # Reads before turning the bus around for writes (Count)
system.mem_ctrl.rdPerTurnAround::128-191           11      9.91%     84.68% # Reads before turning the bus around for writes (Count)
system.mem_ctrl.rdPerTurnAround::192-255            5      4.50%     89.19% # Reads before turning the bus around for writes (Count)
system.mem_ctrl.rdPerTurnAround::256-319            4      3.60%     92.79% # Reads before turning the bus around for writes (Count)
system.mem_ctrl.rdPerTurnAround::320-383            4      3.60%     96.40% # Reads before turning the bus around for writes (Count)
system.mem_ctrl.rdPerTurnAround::448-511            1      0.90%     97.30% # Reads before turning the bus around for writes (Count)
system.mem_ctrl.rdPerTurnAround::704-767            1      0.90%     98.20% # Reads before turning the bus around for writes (Count)
system.mem_ctrl.rdPerTurnAround::896-959            1      0.90%     99.10% # Reads before turning the bus around for writes (Count)
system.mem_ctrl.rdPerTurnAround::1472-1535            1      0.90%    100.00% # Reads before turning the bus around for writes (Count)
system.mem_ctrl.rdPerTurnAround::total            111                       # Reads before turning the bus around for writes (Count)
system.mem_ctrl.wrPerTurnAround::samples          111                       # Writes before turning the bus around for reads (Count)
system.mem_ctrl.wrPerTurnAround::mean       16.036036                       # Writes before turning the bus around for reads (Count)
system.mem_ctrl.wrPerTurnAround::gmean      16.033992                       # Writes before turning the bus around for reads (Count)
system.mem_ctrl.wrPerTurnAround::stdev       0.267239                       # Writes before turning the bus around for reads (Count)
system.mem_ctrl.wrPerTurnAround::16               109     98.20%     98.20% # Writes before turning the bus around for reads (Count)
system.mem_ctrl.wrPerTurnAround::18                 2      1.80%    100.00% # Writes before turning the bus around for reads (Count)
system.mem_ctrl.wrPerTurnAround::total            111                       # Writes before turning the bus around for reads (Count)
system.mem_ctrl.bytesReadWrQ                    35840                       # Total number of bytes read from write queue (Byte)
system.mem_ctrl.bytesReadSys                   950592                       # Total read bytes from the system interface side (Byte)
system.mem_ctrl.bytesWrittenSys                116672                       # Total written bytes from the system interface side (Byte)
system.mem_ctrl.avgRdBWSys               9408903.29272419                       # Average system read bandwidth in Byte/s ((Byte/Second))
system.mem_ctrl.avgWrBWSys               1154812.54309811                       # Average system write bandwidth in Byte/s ((Byte/Second))
system.mem_ctrl.totGap                   101031057000                       # Total gap between requests (Tick)
system.mem_ctrl.avgGap                     6058470.68                       # Average gap between requests ((Tick/Count))
system.mem_ctrl.requestorReadBytes::caches.controllers4       914752                       # Per-requestor bytes read from memory (Byte)
system.mem_ctrl.requestorWriteBytes::caches.controllers4       113920                       # Per-requestor bytes write to memory (Byte)
system.mem_ctrl.requestorReadRate::caches.controllers4 9054161.096270577982                       # Per-requestor bytes read from memory rate ((Byte/Second))
system.mem_ctrl.requestorWriteRate::caches.controllers4 1127573.410156134516                       # Per-requestor bytes write to memory rate ((Byte/Second))
system.mem_ctrl.requestorReadAccesses::caches.controllers4        14853                       # Per-requestor read serviced memory accesses (Count)
system.mem_ctrl.requestorWriteAccesses::caches.controllers4         1823                       # Per-requestor write serviced memory accesses (Count)
system.mem_ctrl.requestorReadTotalLat::caches.controllers4    410695250                       # Per-requestor read total memory access latency (Tick)
system.mem_ctrl.requestorWriteTotalLat::caches.controllers4 2533320227750                       # Per-requestor write total memory access latency (Tick)
system.mem_ctrl.requestorReadAvgLat::caches.controllers4     27650.66                       # Per-requestor read average memory access latency ((Tick/Count))
system.mem_ctrl.requestorWriteAvgLat::caches.controllers4 1389643569.80                       # Per-requestor write average memory access latency ((Tick/Count))
system.mem_ctrl.dram.bytesRead::caches.controllers4       950592                       # Number of bytes read from this memory (Byte)
system.mem_ctrl.dram.bytesRead::total          950592                       # Number of bytes read from this memory (Byte)
system.mem_ctrl.dram.bytesWritten::caches.controllers4       116672                       # Number of bytes written to this memory (Byte)
system.mem_ctrl.dram.bytesWritten::total       116672                       # Number of bytes written to this memory (Byte)
system.mem_ctrl.dram.numReads::caches.controllers4        14853                       # Number of read requests responded to by this memory (Count)
system.mem_ctrl.dram.numReads::total            14853                       # Number of read requests responded to by this memory (Count)
system.mem_ctrl.dram.numWrites::caches.controllers4         1823                       # Number of write requests responded to by this memory (Count)
system.mem_ctrl.dram.numWrites::total            1823                       # Number of write requests responded to by this memory (Count)
system.mem_ctrl.dram.bwRead::caches.controllers4      9408903                       # Total read bandwidth from this memory ((Byte/Second))
system.mem_ctrl.dram.bwRead::total            9408903                       # Total read bandwidth from this memory ((Byte/Second))
system.mem_ctrl.dram.bwWrite::caches.controllers4      1154813                       # Write bandwidth from this memory ((Byte/Second))
system.mem_ctrl.dram.bwWrite::total           1154813                       # Write bandwidth from this memory ((Byte/Second))
system.mem_ctrl.dram.bwTotal::caches.controllers4     10563716                       # Total bandwidth to/from this memory ((Byte/Second))
system.mem_ctrl.dram.bwTotal::total          10563716                       # Total bandwidth to/from this memory ((Byte/Second))
system.mem_ctrl.dram.readBursts                 14293                       # Number of DRAM read bursts (Count)
system.mem_ctrl.dram.writeBursts                 1780                       # Number of DRAM write bursts (Count)
system.mem_ctrl.dram.perBankRdBursts::0           869                       # Per bank write bursts (Count)
system.mem_ctrl.dram.perBankRdBursts::1           684                       # Per bank write bursts (Count)
system.mem_ctrl.dram.perBankRdBursts::2           733                       # Per bank write bursts (Count)
system.mem_ctrl.dram.perBankRdBursts::3          1107                       # Per bank write bursts (Count)
system.mem_ctrl.dram.perBankRdBursts::4           597                       # Per bank write bursts (Count)
system.mem_ctrl.dram.perBankRdBursts::5           544                       # Per bank write bursts (Count)
system.mem_ctrl.dram.perBankRdBursts::6           466                       # Per bank write bursts (Count)
system.mem_ctrl.dram.perBankRdBursts::7          1122                       # Per bank write bursts (Count)
system.mem_ctrl.dram.perBankRdBursts::8          1397                       # Per bank write bursts (Count)
system.mem_ctrl.dram.perBankRdBursts::9          1730                       # Per bank write bursts (Count)
system.mem_ctrl.dram.perBankRdBursts::10         1199                       # Per bank write bursts (Count)
system.mem_ctrl.dram.perBankRdBursts::11          525                       # Per bank write bursts (Count)
system.mem_ctrl.dram.perBankRdBursts::12          409                       # Per bank write bursts (Count)
system.mem_ctrl.dram.perBankRdBursts::13          449                       # Per bank write bursts (Count)
system.mem_ctrl.dram.perBankRdBursts::14         1466                       # Per bank write bursts (Count)
system.mem_ctrl.dram.perBankRdBursts::15          996                       # Per bank write bursts (Count)
system.mem_ctrl.dram.perBankWrBursts::0            13                       # Per bank write bursts (Count)
system.mem_ctrl.dram.perBankWrBursts::1             5                       # Per bank write bursts (Count)
system.mem_ctrl.dram.perBankWrBursts::2            73                       # Per bank write bursts (Count)
system.mem_ctrl.dram.perBankWrBursts::3           248                       # Per bank write bursts (Count)
system.mem_ctrl.dram.perBankWrBursts::4            28                       # Per bank write bursts (Count)
system.mem_ctrl.dram.perBankWrBursts::5             9                       # Per bank write bursts (Count)
system.mem_ctrl.dram.perBankWrBursts::6            51                       # Per bank write bursts (Count)
system.mem_ctrl.dram.perBankWrBursts::7           276                       # Per bank write bursts (Count)
system.mem_ctrl.dram.perBankWrBursts::8           300                       # Per bank write bursts (Count)
system.mem_ctrl.dram.perBankWrBursts::9            96                       # Per bank write bursts (Count)
system.mem_ctrl.dram.perBankWrBursts::10           53                       # Per bank write bursts (Count)
system.mem_ctrl.dram.perBankWrBursts::11           73                       # Per bank write bursts (Count)
system.mem_ctrl.dram.perBankWrBursts::12           59                       # Per bank write bursts (Count)
system.mem_ctrl.dram.perBankWrBursts::13          167                       # Per bank write bursts (Count)
system.mem_ctrl.dram.perBankWrBursts::14          186                       # Per bank write bursts (Count)
system.mem_ctrl.dram.perBankWrBursts::15          143                       # Per bank write bursts (Count)
system.mem_ctrl.dram.totQLat                142701500                       # Total ticks spent queuing (Tick)
system.mem_ctrl.dram.totBusLat               71465000                       # Total ticks spent in databus transfers (Tick)
system.mem_ctrl.dram.totMemAccLat           410695250                       # Total ticks spent from burst creation until serviced by the DRAM (Tick)
system.mem_ctrl.dram.avgQLat                  9984.01                       # Average queueing delay per DRAM burst ((Tick/Count))
system.mem_ctrl.dram.avgBusLat                5000.00                       # Average bus latency per DRAM burst ((Tick/Count))
system.mem_ctrl.dram.avgMemAccLat            28734.01                       # Average memory access latency per DRAM burst ((Tick/Count))
system.mem_ctrl.dram.readRowHits                 9832                       # Number of row buffer hits during reads (Count)
system.mem_ctrl.dram.writeRowHits                1520                       # Number of row buffer hits during writes (Count)
system.mem_ctrl.dram.readRowHitRate             68.79                       # Row buffer hit rate for reads (Ratio)
system.mem_ctrl.dram.writeRowHitRate            85.39                       # Row buffer hit rate for writes (Ratio)
system.mem_ctrl.dram.bytesPerActivate::samples         4713                       # Bytes accessed per row activation (Byte)
system.mem_ctrl.dram.bytesPerActivate::mean   217.828135                       # Bytes accessed per row activation (Byte)
system.mem_ctrl.dram.bytesPerActivate::gmean   147.723484                       # Bytes accessed per row activation (Byte)
system.mem_ctrl.dram.bytesPerActivate::stdev   225.304801                       # Bytes accessed per row activation (Byte)
system.mem_ctrl.dram.bytesPerActivate::0-127         1877     39.83%     39.83% # Bytes accessed per row activation (Byte)
system.mem_ctrl.dram.bytesPerActivate::128-255         1465     31.08%     70.91% # Bytes accessed per row activation (Byte)
system.mem_ctrl.dram.bytesPerActivate::256-383          494     10.48%     81.39% # Bytes accessed per row activation (Byte)
system.mem_ctrl.dram.bytesPerActivate::384-511          406      8.61%     90.01% # Bytes accessed per row activation (Byte)
system.mem_ctrl.dram.bytesPerActivate::512-639          126      2.67%     92.68% # Bytes accessed per row activation (Byte)
system.mem_ctrl.dram.bytesPerActivate::640-767           91      1.93%     94.61% # Bytes accessed per row activation (Byte)
system.mem_ctrl.dram.bytesPerActivate::768-895           63      1.34%     95.95% # Bytes accessed per row activation (Byte)
system.mem_ctrl.dram.bytesPerActivate::896-1023           42      0.89%     96.84% # Bytes accessed per row activation (Byte)
system.mem_ctrl.dram.bytesPerActivate::1024-1151          149      3.16%    100.00% # Bytes accessed per row activation (Byte)
system.mem_ctrl.dram.bytesPerActivate::total         4713                       # Bytes accessed per row activation (Byte)
system.mem_ctrl.dram.bytesRead                 914752                       # Total number of bytes read from DRAM (Byte)
system.mem_ctrl.dram.bytesWritten              113920                       # Total number of bytes written to DRAM (Byte)
system.mem_ctrl.dram.avgRdBW                 9.054161                       # Average DRAM read bandwidth in MiBytes/s ((Byte/Second))
system.mem_ctrl.dram.avgWrBW                 1.127573                       # Average DRAM write bandwidth in MiBytes/s ((Byte/Second))
system.mem_ctrl.dram.peakBW                  12800.00                       # Theoretical peak bandwidth in MiByte/s ((Byte/Second))
system.mem_ctrl.dram.busUtil                     0.08                       # Data bus utilization in percentage (Ratio)
system.mem_ctrl.dram.busUtilRead                 0.07                       # Data bus utilization in percentage for reads (Ratio)
system.mem_ctrl.dram.busUtilWrite                0.01                       # Data bus utilization in percentage for writes (Ratio)
system.mem_ctrl.dram.pageHitRate                70.63                       # Row buffer hit rate, read and write combined (Ratio)
system.mem_ctrl.dram.power_state.pwrStateResidencyTicks::UNDEFINED 101031116000                       # Cumulative time (in ticks) in various power states (Tick)
system.mem_ctrl.dram.rank0.actEnergy         16257780                       # Energy for activate commands per rank (pJ) (Joule)
system.mem_ctrl.dram.rank0.preEnergy          8626035                       # Energy for precharge commands per rank (pJ) (Joule)
system.mem_ctrl.dram.rank0.readEnergy        43711080                       # Energy for read commands per rank (pJ) (Joule)
system.mem_ctrl.dram.rank0.writeEnergy        3669660                       # Energy for write commands per rank (pJ) (Joule)
system.mem_ctrl.dram.rank0.refreshEnergy 7974954000.000001                       # Energy for refresh commands per rank (pJ) (Joule)
system.mem_ctrl.dram.rank0.actBackEnergy   2889346530                       # Energy for active background per rank (pJ) (Joule)
system.mem_ctrl.dram.rank0.preBackEnergy  36362814720                       # Energy for precharge background per rank (pJ) (Joule)
system.mem_ctrl.dram.rank0.actPowerDownEnergy            0                       # Energy for active power-down per rank (pJ) (Joule)
system.mem_ctrl.dram.rank0.prePowerDownEnergy            0                       # Energy for precharge power-down per rank (pJ) (Joule)
system.mem_ctrl.dram.rank0.selfRefreshEnergy            0                       # Energy for self refresh per rank (pJ) (Joule)
system.mem_ctrl.dram.rank0.totalEnergy    47299379805                       # Total energy per rank (pJ) (Joule)
system.mem_ctrl.dram.rank0.averagePower    468.166459                       # Core power per rank (mW) (Watt)
system.mem_ctrl.dram.rank0.totalIdleTime            0                       # Total Idle time Per DRAM Rank (Tick)
system.mem_ctrl.dram.rank0.pwrStateTime::IDLE  94508463750                       # Time in different power states (Tick)
system.mem_ctrl.dram.rank0.pwrStateTime::REF   3373500000                       # Time in different power states (Tick)
system.mem_ctrl.dram.rank0.pwrStateTime::SREF            0                       # Time in different power states (Tick)
system.mem_ctrl.dram.rank0.pwrStateTime::PRE_PDN            0                       # Time in different power states (Tick)
system.mem_ctrl.dram.rank0.pwrStateTime::ACT   3149152250                       # Time in different power states (Tick)
system.mem_ctrl.dram.rank0.pwrStateTime::ACT_PDN            0                       # Time in different power states (Tick)
system.mem_ctrl.dram.rank1.actEnergy         17450160                       # Energy for activate commands per rank (pJ) (Joule)
system.mem_ctrl.dram.rank1.preEnergy          9259800                       # Energy for precharge commands per rank (pJ) (Joule)
system.mem_ctrl.dram.rank1.readEnergy        58340940                       # Energy for read commands per rank (pJ) (Joule)
system.mem_ctrl.dram.rank1.writeEnergy        5621940                       # Energy for write commands per rank (pJ) (Joule)
system.mem_ctrl.dram.rank1.refreshEnergy 7974954000.000001                       # Energy for refresh commands per rank (pJ) (Joule)
system.mem_ctrl.dram.rank1.actBackEnergy   3242071080                       # Energy for active background per rank (pJ) (Joule)
system.mem_ctrl.dram.rank1.preBackEnergy  36065783520                       # Energy for precharge background per rank (pJ) (Joule)
system.mem_ctrl.dram.rank1.actPowerDownEnergy            0                       # Energy for active power-down per rank (pJ) (Joule)
system.mem_ctrl.dram.rank1.prePowerDownEnergy            0                       # Energy for precharge power-down per rank (pJ) (Joule)
system.mem_ctrl.dram.rank1.selfRefreshEnergy            0                       # Energy for self refresh per rank (pJ) (Joule)
system.mem_ctrl.dram.rank1.totalEnergy    47373481440                       # Total energy per rank (pJ) (Joule)
system.mem_ctrl.dram.rank1.averagePower    468.899912                       # Core power per rank (mW) (Watt)
system.mem_ctrl.dram.rank1.totalIdleTime            0                       # Total Idle time Per DRAM Rank (Tick)
system.mem_ctrl.dram.rank1.pwrStateTime::IDLE  93732922500                       # Time in different power states (Tick)
system.mem_ctrl.dram.rank1.pwrStateTime::REF   3373500000                       # Time in different power states (Tick)
system.mem_ctrl.dram.rank1.pwrStateTime::SREF            0                       # Time in different power states (Tick)
system.mem_ctrl.dram.rank1.pwrStateTime::PRE_PDN            0                       # Time in different power states (Tick)
system.mem_ctrl.dram.rank1.pwrStateTime::ACT   3924693500                       # Time in different power states (Tick)
system.mem_ctrl.dram.rank1.pwrStateTime::ACT_PDN            0                       # Time in different power states (Tick)
system.mem_ctrl.power_state.pwrStateResidencyTicks::UNDEFINED 101031116000                       # Cumulative time (in ticks) in various power states (Tick)
system.workload.inst.arm                            0                       # number of arm instructions executed (Count)
system.workload.inst.quiesce                        0                       # number of quiesce instructions executed (Count)

---------- End Simulation Statistics   ----------
