
---------- Begin Simulation Statistics ----------
simSeconds                                   0.002097                       # Number of seconds simulated (Second)
simTicks                                   2096595000                       # Number of ticks simulated (Tick)
finalTick                                  2096595000                       # Number of ticks from beginning of simulation (restored from checkpoints and never reset) (Tick)
simFreq                                  1000000000000                       # The number of ticks per simulated second ((Tick/Second))
hostSeconds                                      1.89                       # Real time elapsed on the host (Second)
hostTickRate                               1109594973                       # The number of ticks simulated per host second (ticks/s) ((Tick/Second))
hostMemory                                     809608                       # Number of bytes of host memory used (Byte)
simInsts                                       440580                       # Number of instructions simulated (Count)
simOps                                         784006                       # Number of ops (including micro ops) simulated (Count)
hostInstRate                                   233159                       # Simulator instruction rate (inst/s) ((Count/Second))
hostOpRate                                     414902                       # Simulator op (including micro ops) rate (op/s) ((Count/Second))
system.caches.m_outstandReqHistSeqr::bucket_size            1                       (Unspecified)
system.caches.m_outstandReqHistSeqr::max_bucket            9                       (Unspecified)
system.caches.m_outstandReqHistSeqr::samples       777893                       (Unspecified)
system.caches.m_outstandReqHistSeqr::mean     1.000024                       (Unspecified)
system.caches.m_outstandReqHistSeqr::gmean     1.000017                       (Unspecified)
system.caches.m_outstandReqHistSeqr::stdev     0.004942                       (Unspecified)
system.caches.m_outstandReqHistSeqr      |           0      0.00%      0.00% |      777874    100.00%    100.00% |          19      0.00%    100.00% |           0      0.00%    100.00% |           0      0.00%    100.00% |           0      0.00%    100.00% |           0      0.00%    100.00% |           0      0.00%    100.00% |           0      0.00%    100.00% |           0      0.00%    100.00% (Unspecified)
system.caches.m_outstandReqHistSeqr::total       777893                       (Unspecified)
system.caches.m_latencyHistSeqr::bucket_size           64                       (Unspecified)
system.caches.m_latencyHistSeqr::max_bucket          639                       (Unspecified)
system.caches.m_latencyHistSeqr::samples       777893                       (Unspecified)
system.caches.m_latencyHistSeqr::mean        1.697724                       (Unspecified)
system.caches.m_latencyHistSeqr::gmean       1.043709                       (Unspecified)
system.caches.m_latencyHistSeqr::stdev       7.562459                       (Unspecified)
system.caches.m_latencyHistSeqr          |      775652     99.71%     99.71% |        2048      0.26%     99.98% |          70      0.01%     99.98% |          33      0.00%     99.99% |          57      0.01%    100.00% |          33      0.00%    100.00% |           0      0.00%    100.00% |           0      0.00%    100.00% |           0      0.00%    100.00% |           0      0.00%    100.00% (Unspecified)
system.caches.m_latencyHistSeqr::total         777893                       (Unspecified)
system.caches.m_hitLatencyHistSeqr::bucket_size            1                       (Unspecified)
system.caches.m_hitLatencyHistSeqr::max_bucket            9                       (Unspecified)
system.caches.m_hitLatencyHistSeqr::samples       769944                       (Unspecified)
system.caches.m_hitLatencyHistSeqr::mean            1                       (Unspecified)
system.caches.m_hitLatencyHistSeqr::gmean            1                       (Unspecified)
system.caches.m_hitLatencyHistSeqr       |           0      0.00%      0.00% |      769944    100.00%    100.00% |           0      0.00%    100.00% |           0      0.00%    100.00% |           0      0.00%    100.00% |           0      0.00%    100.00% |           0      0.00%    100.00% |           0      0.00%    100.00% |           0      0.00%    100.00% |           0      0.00%    100.00% (Unspecified)
system.caches.m_hitLatencyHistSeqr::total       769944                       (Unspecified)
system.caches.m_missLatencyHistSeqr::bucket_size           64                       (Unspecified)
system.caches.m_missLatencyHistSeqr::max_bucket          639                       (Unspecified)
system.caches.m_missLatencyHistSeqr::samples         7949                       (Unspecified)
system.caches.m_missLatencyHistSeqr::mean    69.279658                       (Unspecified)
system.caches.m_missLatencyHistSeqr::gmean    65.797686                       (Unspecified)
system.caches.m_missLatencyHistSeqr::stdev    31.342671                       (Unspecified)
system.caches.m_missLatencyHistSeqr      |        5708     71.81%     71.81% |        2048     25.76%     97.57% |          70      0.88%     98.45% |          33      0.42%     98.87% |          57      0.72%     99.58% |          33      0.42%    100.00% |           0      0.00%    100.00% |           0      0.00%    100.00% |           0      0.00%    100.00% |           0      0.00%    100.00% (Unspecified)
system.caches.m_missLatencyHistSeqr::total         7949                       (Unspecified)
system.caches.L1Cache_Controller.Load    |      348911     48.34%     48.34% |      372902     51.66%    100.00% |           0      0.00%    100.00% |           0      0.00%    100.00% (Unspecified)
system.caches.L1Cache_Controller.Load::total       721813                       (Unspecified)
system.caches.L1Cache_Controller.Store   |       22224     39.63%     39.63% |       33856     60.37%    100.00% |           0      0.00%    100.00% |           0      0.00%    100.00% (Unspecified)
system.caches.L1Cache_Controller.Store::total        56080                       (Unspecified)
system.caches.L1Cache_Controller.Replacement |     1999675     86.36%     86.36% |      315836     13.64%    100.00% |           0      0.00%    100.00% |           0      0.00%    100.00% (Unspecified)
system.caches.L1Cache_Controller.Replacement::total      2315511                       (Unspecified)
system.caches.L1Cache_Controller.FwdGetS |           9     75.00%     75.00% |           3     25.00%    100.00% |           0      0.00%    100.00% |           0      0.00%    100.00% (Unspecified)
system.caches.L1Cache_Controller.FwdGetS::total           12                       (Unspecified)
system.caches.L1Cache_Controller.FwdGetM |           7     70.00%     70.00% |           3     30.00%    100.00% |           0      0.00%    100.00% |           0      0.00%    100.00% (Unspecified)
system.caches.L1Cache_Controller.FwdGetM::total           10                       (Unspecified)
system.caches.L1Cache_Controller.Inv     |           7     58.33%     58.33% |           5     41.67%    100.00% |           0      0.00%    100.00% |           0      0.00%    100.00% (Unspecified)
system.caches.L1Cache_Controller.Inv::total           12                       (Unspecified)
system.caches.L1Cache_Controller.PutAck  |        6249     86.36%     86.36% |         987     13.64%    100.00% |           0      0.00%    100.00% |           0      0.00%    100.00% (Unspecified)
system.caches.L1Cache_Controller.PutAck::total         7236                       (Unspecified)
system.caches.L1Cache_Controller.DataDirNoAcks |        6667     84.10%     84.10% |        1260     15.90%    100.00% |           0      0.00%    100.00% |           0      0.00%    100.00% (Unspecified)
system.caches.L1Cache_Controller.DataDirNoAcks::total         7927                       (Unspecified)
system.caches.L1Cache_Controller.DataOwner |           6     27.27%     27.27% |          16     72.73%    100.00% |           0      0.00%    100.00% |           0      0.00%    100.00% (Unspecified)
system.caches.L1Cache_Controller.DataOwner::total           22                       (Unspecified)
system.caches.L1Cache_Controller.InvAck  |           5     41.67%     41.67% |           7     58.33%    100.00% |           0      0.00%    100.00% |           0      0.00%    100.00% (Unspecified)
system.caches.L1Cache_Controller.InvAck::total           12                       (Unspecified)
system.caches.L1Cache_Controller.I.Load  |        5668     83.33%     83.33% |        1134     16.67%    100.00% |           0      0.00%    100.00% |           0      0.00%    100.00% (Unspecified)
system.caches.L1Cache_Controller.I.Load::total         6802                       (Unspecified)
system.caches.L1Cache_Controller.I.Store |         851     88.55%     88.55% |         110     11.45%    100.00% |           0      0.00%    100.00% |           0      0.00%    100.00% (Unspecified)
system.caches.L1Cache_Controller.I.Store::total          961                       (Unspecified)
system.caches.L1Cache_Controller.IS_D.DataDirNoAcks |        5665     83.43%     83.43% |        1125     16.57%    100.00% |           0      0.00%    100.00% |           0      0.00%    100.00% (Unspecified)
system.caches.L1Cache_Controller.IS_D.DataDirNoAcks::total         6790                       (Unspecified)
system.caches.L1Cache_Controller.IS_D.DataOwner |           3     25.00%     25.00% |           9     75.00%    100.00% |           0      0.00%    100.00% |           0      0.00%    100.00% (Unspecified)
system.caches.L1Cache_Controller.IS_D.DataOwner::total           12                       (Unspecified)
system.caches.L1Cache_Controller.IM_AD.DataDirNoAcks |         848     89.17%     89.17% |         103     10.83%    100.00% |           0      0.00%    100.00% |           0      0.00%    100.00% (Unspecified)
system.caches.L1Cache_Controller.IM_AD.DataDirNoAcks::total          951                       (Unspecified)
system.caches.L1Cache_Controller.IM_AD.DataOwner |           3     30.00%     30.00% |           7     70.00%    100.00% |           0      0.00%    100.00% |           0      0.00%    100.00% (Unspecified)
system.caches.L1Cache_Controller.IM_AD.DataOwner::total           10                       (Unspecified)
system.caches.L1Cache_Controller.S.Load  |      324561     52.39%     52.39% |      294979     47.61%    100.00% |           0      0.00%    100.00% |           0      0.00%    100.00% (Unspecified)
system.caches.L1Cache_Controller.S.Load::total       619540                       (Unspecified)
system.caches.L1Cache_Controller.S.Store |         154     82.80%     82.80% |          32     17.20%    100.00% |           0      0.00%    100.00% |           0      0.00%    100.00% (Unspecified)
system.caches.L1Cache_Controller.S.Store::total          186                       (Unspecified)
system.caches.L1Cache_Controller.S.Replacement |        5305     85.76%     85.76% |         881     14.24%    100.00% |           0      0.00%    100.00% |           0      0.00%    100.00% (Unspecified)
system.caches.L1Cache_Controller.S.Replacement::total         6186                       (Unspecified)
system.caches.L1Cache_Controller.S.Inv   |           7     58.33%     58.33% |           5     41.67%    100.00% |           0      0.00%    100.00% |           0      0.00%    100.00% (Unspecified)
system.caches.L1Cache_Controller.S.Inv::total           12                       (Unspecified)
system.caches.L1Cache_Controller.SM_AD.DataDirNoAcks |         154     82.80%     82.80% |          32     17.20%    100.00% |           0      0.00%    100.00% |           0      0.00%    100.00% (Unspecified)
system.caches.L1Cache_Controller.SM_AD.DataDirNoAcks::total          186                       (Unspecified)
system.caches.L1Cache_Controller.SM_AD.InvAck |           5     41.67%     41.67% |           7     58.33%    100.00% |           0      0.00%    100.00% |           0      0.00%    100.00% (Unspecified)
system.caches.L1Cache_Controller.SM_AD.InvAck::total           12                       (Unspecified)
system.caches.L1Cache_Controller.M.Load  |       18682     19.57%     19.57% |       76789     80.43%    100.00% |           0      0.00%    100.00% |           0      0.00%    100.00% (Unspecified)
system.caches.L1Cache_Controller.M.Load::total        95471                       (Unspecified)
system.caches.L1Cache_Controller.M.Store |       21219     38.63%     38.63% |       33714     61.37%    100.00% |           0      0.00%    100.00% |           0      0.00%    100.00% (Unspecified)
system.caches.L1Cache_Controller.M.Store::total        54933                       (Unspecified)
system.caches.L1Cache_Controller.M.Replacement |         944     89.90%     89.90% |         106     10.10%    100.00% |           0      0.00%    100.00% |           0      0.00%    100.00% (Unspecified)
system.caches.L1Cache_Controller.M.Replacement::total         1050                       (Unspecified)
system.caches.L1Cache_Controller.M.FwdGetS |           9     75.00%     75.00% |           3     25.00%    100.00% |           0      0.00%    100.00% |           0      0.00%    100.00% (Unspecified)
system.caches.L1Cache_Controller.M.FwdGetS::total           12                       (Unspecified)
system.caches.L1Cache_Controller.M.FwdGetM |           7     70.00%     70.00% |           3     30.00%    100.00% |           0      0.00%    100.00% |           0      0.00%    100.00% (Unspecified)
system.caches.L1Cache_Controller.M.FwdGetM::total           10                       (Unspecified)
system.caches.L1Cache_Controller.MI_A.Replacement |      301134     89.90%     89.90% |       33814     10.10%    100.00% |           0      0.00%    100.00% |           0      0.00%    100.00% (Unspecified)
system.caches.L1Cache_Controller.MI_A.Replacement::total       334948                       (Unspecified)
system.caches.L1Cache_Controller.MI_A.PutAck |         944     89.90%     89.90% |         106     10.10%    100.00% |           0      0.00%    100.00% |           0      0.00%    100.00% (Unspecified)
system.caches.L1Cache_Controller.MI_A.PutAck::total         1050                       (Unspecified)
system.caches.L1Cache_Controller.SI_A.Replacement |     1692292     85.76%     85.76% |      281035     14.24%    100.00% |           0      0.00%    100.00% |           0      0.00%    100.00% (Unspecified)
system.caches.L1Cache_Controller.SI_A.Replacement::total      1973327                       (Unspecified)
system.caches.L1Cache_Controller.SI_A.PutAck |        5305     85.76%     85.76% |         881     14.24%    100.00% |           0      0.00%    100.00% |           0      0.00%    100.00% (Unspecified)
system.caches.L1Cache_Controller.SI_A.PutAck::total         6186                       (Unspecified)
system.caches.Directory_Controller.GetS          6802      0.00%      0.00% (Unspecified)
system.caches.Directory_Controller.GetM          1147      0.00%      0.00% (Unspecified)
system.caches.Directory_Controller.PutSNotLast          219      0.00%      0.00% (Unspecified)
system.caches.Directory_Controller.PutSLast         5967      0.00%      0.00% (Unspecified)
system.caches.Directory_Controller.PutMOwner         1050      0.00%      0.00% (Unspecified)
system.caches.Directory_Controller.Data            12      0.00%      0.00% (Unspecified)
system.caches.Directory_Controller.MemData         7927      0.00%      0.00% (Unspecified)
system.caches.Directory_Controller.MemAck         1062      0.00%      0.00% (Unspecified)
system.caches.Directory_Controller.I.GetS         6537      0.00%      0.00% (Unspecified)
system.caches.Directory_Controller.I.GetM          951      0.00%      0.00% (Unspecified)
system.caches.Directory_Controller.S.GetS          253      0.00%      0.00% (Unspecified)
system.caches.Directory_Controller.S.GetM          186      0.00%      0.00% (Unspecified)
system.caches.Directory_Controller.S.PutSNotLast          219      0.00%      0.00% (Unspecified)
system.caches.Directory_Controller.S.PutSLast         5967      0.00%      0.00% (Unspecified)
system.caches.Directory_Controller.M.GetS           12      0.00%      0.00% (Unspecified)
system.caches.Directory_Controller.M.GetM           10      0.00%      0.00% (Unspecified)
system.caches.Directory_Controller.M.PutMOwner         1050      0.00%      0.00% (Unspecified)
system.caches.Directory_Controller.S_D.Data           12      0.00%      0.00% (Unspecified)
system.caches.Directory_Controller.S_m.MemData         6790      0.00%      0.00% (Unspecified)
system.caches.Directory_Controller.M_m.MemData         1137      0.00%      0.00% (Unspecified)
system.caches.Directory_Controller.MI_m.MemAck         1050      0.00%      0.00% (Unspecified)
system.caches.Directory_Controller.SS_m.MemAck           12      0.00%      0.00% (Unspecified)
system.caches.MachineType.L1Cache.miss_mach_latency_hist_seqr::bucket_size            4                       (Unspecified)
system.caches.MachineType.L1Cache.miss_mach_latency_hist_seqr::max_bucket           39                       (Unspecified)
system.caches.MachineType.L1Cache.miss_mach_latency_hist_seqr::samples           22                       (Unspecified)
system.caches.MachineType.L1Cache.miss_mach_latency_hist_seqr::mean    19.181818                       (Unspecified)
system.caches.MachineType.L1Cache.miss_mach_latency_hist_seqr::gmean    18.672810                       (Unspecified)
system.caches.MachineType.L1Cache.miss_mach_latency_hist_seqr::stdev     4.767313                       (Unspecified)
system.caches.MachineType.L1Cache.miss_mach_latency_hist_seqr |           0      0.00%      0.00% |           0      0.00%      0.00% |           0      0.00%      0.00% |           0      0.00%      0.00% |          15     68.18%     68.18% |           0      0.00%     68.18% |           7     31.82%    100.00% |           0      0.00%    100.00% |           0      0.00%    100.00% |           0      0.00%    100.00% (Unspecified)
system.caches.MachineType.L1Cache.miss_mach_latency_hist_seqr::total           22                       (Unspecified)
system.caches.MachineType.L1Cache.incomplete_times_seqr           22                       (Unspecified)
system.caches.MachineType.Directory.miss_mach_latency_hist_seqr::bucket_size           64                      
system.caches.MachineType.Directory.miss_mach_latency_hist_seqr::max_bucket          639                      
system.caches.MachineType.Directory.miss_mach_latency_hist_seqr::samples         7927                      
system.caches.MachineType.Directory.miss_mach_latency_hist_seqr::mean    69.418696                      
system.caches.MachineType.Directory.miss_mach_latency_hist_seqr::gmean    66.028088                      
system.caches.MachineType.Directory.miss_mach_latency_hist_seqr::stdev    31.273692                      
system.caches.MachineType.Directory.miss_mach_latency_hist_seqr |        5686     71.73%     71.73% |        2048     25.84%     97.57% |          70      0.88%     98.45% |          33      0.42%     98.86% |          57      0.72%     99.58% |          33      0.42%    100.00% |           0      0.00%    100.00% |           0      0.00%    100.00% |           0      0.00%    100.00% |           0      0.00%    100.00% (Unspecified)
system.caches.MachineType.Directory.miss_mach_latency_hist_seqr::total         7927                      
system.caches.MachineType.Directory.miss_latency_hist_seqr.issue_to_initial_request::bucket_size            1                      
system.caches.MachineType.Directory.miss_latency_hist_seqr.issue_to_initial_request::max_bucket            9                      
system.caches.MachineType.Directory.miss_latency_hist_seqr.issue_to_initial_request::samples            1                      
system.caches.MachineType.Directory.miss_latency_hist_seqr.issue_to_initial_request::stdev          nan                      
system.caches.MachineType.Directory.miss_latency_hist_seqr.issue_to_initial_request |           1    100.00%    100.00% |           0      0.00%    100.00% |           0      0.00%    100.00% |           0      0.00%    100.00% |           0      0.00%    100.00% |           0      0.00%    100.00% |           0      0.00%    100.00% |           0      0.00%    100.00% |           0      0.00%    100.00% |           0      0.00%    100.00% (Unspecified)
system.caches.MachineType.Directory.miss_latency_hist_seqr.issue_to_initial_request::total            1                      
system.caches.MachineType.Directory.miss_latency_hist_seqr.initial_to_forward::bucket_size            1                      
system.caches.MachineType.Directory.miss_latency_hist_seqr.initial_to_forward::max_bucket            9                      
system.caches.MachineType.Directory.miss_latency_hist_seqr.initial_to_forward::samples            1                      
system.caches.MachineType.Directory.miss_latency_hist_seqr.initial_to_forward::stdev          nan                      
system.caches.MachineType.Directory.miss_latency_hist_seqr.initial_to_forward |           1    100.00%    100.00% |           0      0.00%    100.00% |           0      0.00%    100.00% |           0      0.00%    100.00% |           0      0.00%    100.00% |           0      0.00%    100.00% |           0      0.00%    100.00% |           0      0.00%    100.00% |           0      0.00%    100.00% |           0      0.00%    100.00% (Unspecified)
system.caches.MachineType.Directory.miss_latency_hist_seqr.initial_to_forward::total            1                      
system.caches.MachineType.Directory.miss_latency_hist_seqr.forward_to_first_response::bucket_size            1                      
system.caches.MachineType.Directory.miss_latency_hist_seqr.forward_to_first_response::max_bucket            9                      
system.caches.MachineType.Directory.miss_latency_hist_seqr.forward_to_first_response::samples            1                      
system.caches.MachineType.Directory.miss_latency_hist_seqr.forward_to_first_response::stdev          nan                      
system.caches.MachineType.Directory.miss_latency_hist_seqr.forward_to_first_response |           1    100.00%    100.00% |           0      0.00%    100.00% |           0      0.00%    100.00% |           0      0.00%    100.00% |           0      0.00%    100.00% |           0      0.00%    100.00% |           0      0.00%    100.00% |           0      0.00%    100.00% |           0      0.00%    100.00% |           0      0.00%    100.00% (Unspecified)
system.caches.MachineType.Directory.miss_latency_hist_seqr.forward_to_first_response::total            1                      
system.caches.MachineType.Directory.miss_latency_hist_seqr.first_response_to_completion::bucket_size            8                      
system.caches.MachineType.Directory.miss_latency_hist_seqr.first_response_to_completion::max_bucket           79                      
system.caches.MachineType.Directory.miss_latency_hist_seqr.first_response_to_completion::samples            1                      
system.caches.MachineType.Directory.miss_latency_hist_seqr.first_response_to_completion::mean           73                      
system.caches.MachineType.Directory.miss_latency_hist_seqr.first_response_to_completion::gmean    73.000000                      
system.caches.MachineType.Directory.miss_latency_hist_seqr.first_response_to_completion::stdev          nan                      
system.caches.MachineType.Directory.miss_latency_hist_seqr.first_response_to_completion |           0      0.00%      0.00% |           0      0.00%      0.00% |           0      0.00%      0.00% |           0      0.00%      0.00% |           0      0.00%      0.00% |           0      0.00%      0.00% |           0      0.00%      0.00% |           0      0.00%      0.00% |           0      0.00%      0.00% |           1    100.00%    100.00% (Unspecified)
system.caches.MachineType.Directory.miss_latency_hist_seqr.first_response_to_completion::total            1                      
system.caches.MachineType.Directory.incomplete_times_seqr         7926                       (Unspecified)
system.caches.RequestType.LD.latency_hist_seqr::bucket_size           64                       (Unspecified)
system.caches.RequestType.LD.latency_hist_seqr::max_bucket          639                       (Unspecified)
system.caches.RequestType.LD.latency_hist_seqr::samples       139359                       (Unspecified)
system.caches.RequestType.LD.latency_hist_seqr::mean     2.970379                       (Unspecified)
system.caches.RequestType.LD.latency_hist_seqr::gmean     1.126310                       (Unspecified)
system.caches.RequestType.LD.latency_hist_seqr::stdev    12.755025                       (Unspecified)
system.caches.RequestType.LD.latency_hist_seqr |      138111     99.10%     99.10% |        1140      0.82%     99.92% |          44      0.03%     99.95% |          18      0.01%     99.97% |          29      0.02%     99.99% |          17      0.01%    100.00% |           0      0.00%    100.00% |           0      0.00%    100.00% |           0      0.00%    100.00% |           0      0.00%    100.00% (Unspecified)
system.caches.RequestType.LD.latency_hist_seqr::total       139359                       (Unspecified)
system.caches.RequestType.LD.hit_latency_hist_seqr::bucket_size            1                       (Unspecified)
system.caches.RequestType.LD.hit_latency_hist_seqr::max_bucket            9                       (Unspecified)
system.caches.RequestType.LD.hit_latency_hist_seqr::samples       135416                       (Unspecified)
system.caches.RequestType.LD.hit_latency_hist_seqr::mean            1                       (Unspecified)
system.caches.RequestType.LD.hit_latency_hist_seqr::gmean            1                       (Unspecified)
system.caches.RequestType.LD.hit_latency_hist_seqr |           0      0.00%      0.00% |      135416    100.00%    100.00% |           0      0.00%    100.00% |           0      0.00%    100.00% |           0      0.00%    100.00% |           0      0.00%    100.00% |           0      0.00%    100.00% |           0      0.00%    100.00% |           0      0.00%    100.00% |           0      0.00%    100.00% (Unspecified)
system.caches.RequestType.LD.hit_latency_hist_seqr::total       135416                       (Unspecified)
system.caches.RequestType.LD.miss_latency_hist_seqr::bucket_size           64                       (Unspecified)
system.caches.RequestType.LD.miss_latency_hist_seqr::max_bucket          639                       (Unspecified)
system.caches.RequestType.LD.miss_latency_hist_seqr::samples         3943                       (Unspecified)
system.caches.RequestType.LD.miss_latency_hist_seqr::mean    70.639868                       (Unspecified)
system.caches.RequestType.LD.miss_latency_hist_seqr::gmean    66.953029                       (Unspecified)
system.caches.RequestType.LD.miss_latency_hist_seqr::stdev    32.214396                       (Unspecified)
system.caches.RequestType.LD.miss_latency_hist_seqr |        2695     68.35%     68.35% |        1140     28.91%     97.26% |          44      1.12%     98.38% |          18      0.46%     98.83% |          29      0.74%     99.57% |          17      0.43%    100.00% |           0      0.00%    100.00% |           0      0.00%    100.00% |           0      0.00%    100.00% |           0      0.00%    100.00% (Unspecified)
system.caches.RequestType.LD.miss_latency_hist_seqr::total         3943                       (Unspecified)
system.caches.RequestType.ST.latency_hist_seqr::bucket_size           64                       (Unspecified)
system.caches.RequestType.ST.latency_hist_seqr::max_bucket          639                       (Unspecified)
system.caches.RequestType.ST.latency_hist_seqr::samples        49759                       (Unspecified)
system.caches.RequestType.ST.latency_hist_seqr::mean     2.373038                       (Unspecified)
system.caches.RequestType.ST.latency_hist_seqr::gmean     1.091103                       (Unspecified)
system.caches.RequestType.ST.latency_hist_seqr::stdev    10.796126                       (Unspecified)
system.caches.RequestType.ST.latency_hist_seqr |       49556     99.59%     99.59% |         171      0.34%     99.94% |          11      0.02%     99.96% |           5      0.01%     99.97% |           7      0.01%     99.98% |           9      0.02%    100.00% |           0      0.00%    100.00% |           0      0.00%    100.00% |           0      0.00%    100.00% |           0      0.00%    100.00% (Unspecified)
system.caches.RequestType.ST.latency_hist_seqr::total        49759                       (Unspecified)
system.caches.RequestType.ST.hit_latency_hist_seqr::bucket_size            1                       (Unspecified)
system.caches.RequestType.ST.hit_latency_hist_seqr::max_bucket            9                       (Unspecified)
system.caches.RequestType.ST.hit_latency_hist_seqr::samples        48701                       (Unspecified)
system.caches.RequestType.ST.hit_latency_hist_seqr::mean            1                       (Unspecified)
system.caches.RequestType.ST.hit_latency_hist_seqr::gmean            1                       (Unspecified)
system.caches.RequestType.ST.hit_latency_hist_seqr |           0      0.00%      0.00% |       48701    100.00%    100.00% |           0      0.00%    100.00% |           0      0.00%    100.00% |           0      0.00%    100.00% |           0      0.00%    100.00% |           0      0.00%    100.00% |           0      0.00%    100.00% |           0      0.00%    100.00% |           0      0.00%    100.00% (Unspecified)
system.caches.RequestType.ST.hit_latency_hist_seqr::total        48701                       (Unspecified)
system.caches.RequestType.ST.miss_latency_hist_seqr::bucket_size           64                       (Unspecified)
system.caches.RequestType.ST.miss_latency_hist_seqr::max_bucket          639                       (Unspecified)
system.caches.RequestType.ST.miss_latency_hist_seqr::samples         1058                       (Unspecified)
system.caches.RequestType.ST.miss_latency_hist_seqr::mean    65.575614                       (Unspecified)
system.caches.RequestType.ST.miss_latency_hist_seqr::gmean    60.376164                       (Unspecified)
system.caches.RequestType.ST.miss_latency_hist_seqr::stdev    37.438647                       (Unspecified)
system.caches.RequestType.ST.miss_latency_hist_seqr |         855     80.81%     80.81% |         171     16.16%     96.98% |          11      1.04%     98.02% |           5      0.47%     98.49% |           7      0.66%     99.15% |           9      0.85%    100.00% |           0      0.00%    100.00% |           0      0.00%    100.00% |           0      0.00%    100.00% |           0      0.00%    100.00% (Unspecified)
system.caches.RequestType.ST.miss_latency_hist_seqr::total         1058                       (Unspecified)
system.caches.RequestType.IFETCH.latency_hist_seqr::bucket_size           64                       (Unspecified)
system.caches.RequestType.IFETCH.latency_hist_seqr::max_bucket          639                       (Unspecified)
system.caches.RequestType.IFETCH.latency_hist_seqr::samples       582454                       (Unspecified)
system.caches.RequestType.IFETCH.latency_hist_seqr::mean     1.335201                       (Unspecified)
system.caches.RequestType.IFETCH.latency_hist_seqr::gmean     1.020849                       (Unspecified)
system.caches.RequestType.IFETCH.latency_hist_seqr::stdev     5.146233                       (Unspecified)
system.caches.RequestType.IFETCH.latency_hist_seqr |      581683     99.87%     99.87% |         718      0.12%     99.99% |          15      0.00%     99.99% |          10      0.00%    100.00% |          21      0.00%    100.00% |           7      0.00%    100.00% |           0      0.00%    100.00% |           0      0.00%    100.00% |           0      0.00%    100.00% |           0      0.00%    100.00% (Unspecified)
system.caches.RequestType.IFETCH.latency_hist_seqr::total       582454                       (Unspecified)
system.caches.RequestType.IFETCH.hit_latency_hist_seqr::bucket_size            1                       (Unspecified)
system.caches.RequestType.IFETCH.hit_latency_hist_seqr::max_bucket            9                       (Unspecified)
system.caches.RequestType.IFETCH.hit_latency_hist_seqr::samples       579595                       (Unspecified)
system.caches.RequestType.IFETCH.hit_latency_hist_seqr::mean            1                       (Unspecified)
system.caches.RequestType.IFETCH.hit_latency_hist_seqr::gmean            1                       (Unspecified)
system.caches.RequestType.IFETCH.hit_latency_hist_seqr |           0      0.00%      0.00% |      579595    100.00%    100.00% |           0      0.00%    100.00% |           0      0.00%    100.00% |           0      0.00%    100.00% |           0      0.00%    100.00% |           0      0.00%    100.00% |           0      0.00%    100.00% |           0      0.00%    100.00% |           0      0.00%    100.00% (Unspecified)
system.caches.RequestType.IFETCH.hit_latency_hist_seqr::total       579595                       (Unspecified)
system.caches.RequestType.IFETCH.miss_latency_hist_seqr::bucket_size           64                       (Unspecified)
system.caches.RequestType.IFETCH.miss_latency_hist_seqr::max_bucket          639                       (Unspecified)
system.caches.RequestType.IFETCH.miss_latency_hist_seqr::samples         2859                       (Unspecified)
system.caches.RequestType.IFETCH.miss_latency_hist_seqr::mean    69.289262                       (Unspecified)
system.caches.RequestType.IFETCH.miss_latency_hist_seqr::gmean    66.942157                       (Unspecified)
system.caches.RequestType.IFETCH.miss_latency_hist_seqr::stdev    27.480089                       (Unspecified)
system.caches.RequestType.IFETCH.miss_latency_hist_seqr |        2088     73.03%     73.03% |         718     25.11%     98.15% |          15      0.52%     98.67% |          10      0.35%     99.02% |          21      0.73%     99.76% |           7      0.24%    100.00% |           0      0.00%    100.00% |           0      0.00%    100.00% |           0      0.00%    100.00% |           0      0.00%    100.00% (Unspecified)
system.caches.RequestType.IFETCH.miss_latency_hist_seqr::total         2859                       (Unspecified)
system.caches.RequestType.RMW_Read.latency_hist_seqr::bucket_size           16                       (Unspecified)
system.caches.RequestType.RMW_Read.latency_hist_seqr::max_bucket          159                       (Unspecified)
system.caches.RequestType.RMW_Read.latency_hist_seqr::samples         5621                       (Unspecified)
system.caches.RequestType.RMW_Read.latency_hist_seqr::mean     1.633161                       (Unspecified)
system.caches.RequestType.RMW_Read.latency_hist_seqr::gmean     1.046398                       (Unspecified)
system.caches.RequestType.RMW_Read.latency_hist_seqr::stdev     6.151723                       (Unspecified)
system.caches.RequestType.RMW_Read.latency_hist_seqr |        5557     98.86%     98.86% |           5      0.09%     98.95% |           5      0.09%     99.04% |          40      0.71%     99.75% |          10      0.18%     99.93% |           4      0.07%    100.00% |           0      0.00%    100.00% |           0      0.00%    100.00% |           0      0.00%    100.00% |           0      0.00%    100.00% (Unspecified)
system.caches.RequestType.RMW_Read.latency_hist_seqr::total         5621                       (Unspecified)
system.caches.RequestType.RMW_Read.hit_latency_hist_seqr::bucket_size            1                       (Unspecified)
system.caches.RequestType.RMW_Read.hit_latency_hist_seqr::max_bucket            9                       (Unspecified)
system.caches.RequestType.RMW_Read.hit_latency_hist_seqr::samples         5557                       (Unspecified)
system.caches.RequestType.RMW_Read.hit_latency_hist_seqr::mean            1                       (Unspecified)
system.caches.RequestType.RMW_Read.hit_latency_hist_seqr::gmean            1                       (Unspecified)
system.caches.RequestType.RMW_Read.hit_latency_hist_seqr |           0      0.00%      0.00% |        5557    100.00%    100.00% |           0      0.00%    100.00% |           0      0.00%    100.00% |           0      0.00%    100.00% |           0      0.00%    100.00% |           0      0.00%    100.00% |           0      0.00%    100.00% |           0      0.00%    100.00% |           0      0.00%    100.00% (Unspecified)
system.caches.RequestType.RMW_Read.hit_latency_hist_seqr::total         5557                       (Unspecified)
system.caches.RequestType.RMW_Read.miss_latency_hist_seqr::bucket_size           16                       (Unspecified)
system.caches.RequestType.RMW_Read.miss_latency_hist_seqr::max_bucket          159                       (Unspecified)
system.caches.RequestType.RMW_Read.miss_latency_hist_seqr::samples           64                       (Unspecified)
system.caches.RequestType.RMW_Read.miss_latency_hist_seqr::mean    56.609375                       (Unspecified)
system.caches.RequestType.RMW_Read.miss_latency_hist_seqr::gmean    53.693792                       (Unspecified)
system.caches.RequestType.RMW_Read.miss_latency_hist_seqr::stdev    16.437102                       (Unspecified)
system.caches.RequestType.RMW_Read.miss_latency_hist_seqr |           0      0.00%      0.00% |           5      7.81%      7.81% |           5      7.81%     15.62% |          40     62.50%     78.12% |          10     15.62%     93.75% |           4      6.25%    100.00% |           0      0.00%    100.00% |           0      0.00%    100.00% |           0      0.00%    100.00% |           0      0.00%    100.00% (Unspecified)
system.caches.RequestType.RMW_Read.miss_latency_hist_seqr::total           64                       (Unspecified)
system.caches.RequestType.Locked_RMW_Read.latency_hist_seqr::bucket_size            8                       (Unspecified)
system.caches.RequestType.Locked_RMW_Read.latency_hist_seqr::max_bucket           79                       (Unspecified)
system.caches.RequestType.Locked_RMW_Read.latency_hist_seqr::samples          350                       (Unspecified)
system.caches.RequestType.Locked_RMW_Read.latency_hist_seqr::mean     3.988571                       (Unspecified)
system.caches.RequestType.Locked_RMW_Read.latency_hist_seqr::gmean     1.295882                       (Unspecified)
system.caches.RequestType.Locked_RMW_Read.latency_hist_seqr::stdev    12.114302                       (Unspecified)
system.caches.RequestType.Locked_RMW_Read.latency_hist_seqr |         325     92.86%     92.86% |           0      0.00%     92.86% |          10      2.86%     95.71% |           1      0.29%     96.00% |           1      0.29%     96.29% |           0      0.00%     96.29% |           6      1.71%     98.00% |           2      0.57%     98.57% |           2      0.57%     99.14% |           3      0.86%    100.00% (Unspecified)
system.caches.RequestType.Locked_RMW_Read.latency_hist_seqr::total          350                       (Unspecified)
system.caches.RequestType.Locked_RMW_Read.hit_latency_hist_seqr::bucket_size            1                       (Unspecified)
system.caches.RequestType.Locked_RMW_Read.hit_latency_hist_seqr::max_bucket            9                       (Unspecified)
system.caches.RequestType.Locked_RMW_Read.hit_latency_hist_seqr::samples          325                       (Unspecified)
system.caches.RequestType.Locked_RMW_Read.hit_latency_hist_seqr::mean            1                       (Unspecified)
system.caches.RequestType.Locked_RMW_Read.hit_latency_hist_seqr::gmean            1                       (Unspecified)
system.caches.RequestType.Locked_RMW_Read.hit_latency_hist_seqr |           0      0.00%      0.00% |         325    100.00%    100.00% |           0      0.00%    100.00% |           0      0.00%    100.00% |           0      0.00%    100.00% |           0      0.00%    100.00% |           0      0.00%    100.00% |           0      0.00%    100.00% |           0      0.00%    100.00% |           0      0.00%    100.00% (Unspecified)
system.caches.RequestType.Locked_RMW_Read.hit_latency_hist_seqr::total          325                       (Unspecified)
system.caches.RequestType.Locked_RMW_Read.miss_latency_hist_seqr::bucket_size            8                       (Unspecified)
system.caches.RequestType.Locked_RMW_Read.miss_latency_hist_seqr::max_bucket           79                       (Unspecified)
system.caches.RequestType.Locked_RMW_Read.miss_latency_hist_seqr::samples           25                       (Unspecified)
system.caches.RequestType.Locked_RMW_Read.miss_latency_hist_seqr::mean    42.840000                       (Unspecified)
system.caches.RequestType.Locked_RMW_Read.miss_latency_hist_seqr::gmean    37.663032                       (Unspecified)
system.caches.RequestType.Locked_RMW_Read.miss_latency_hist_seqr::stdev    20.995396                       (Unspecified)
system.caches.RequestType.Locked_RMW_Read.miss_latency_hist_seqr |           0      0.00%      0.00% |           0      0.00%      0.00% |          10     40.00%     40.00% |           1      4.00%     44.00% |           1      4.00%     48.00% |           0      0.00%     48.00% |           6     24.00%     72.00% |           2      8.00%     80.00% |           2      8.00%     88.00% |           3     12.00%    100.00% (Unspecified)
system.caches.RequestType.Locked_RMW_Read.miss_latency_hist_seqr::total           25                       (Unspecified)
system.caches.RequestType.Locked_RMW_Write.latency_hist_seqr::bucket_size            1                       (Unspecified)
system.caches.RequestType.Locked_RMW_Write.latency_hist_seqr::max_bucket            9                       (Unspecified)
system.caches.RequestType.Locked_RMW_Write.latency_hist_seqr::samples          350                       (Unspecified)
system.caches.RequestType.Locked_RMW_Write.latency_hist_seqr::mean            1                       (Unspecified)
system.caches.RequestType.Locked_RMW_Write.latency_hist_seqr::gmean            1                       (Unspecified)
system.caches.RequestType.Locked_RMW_Write.latency_hist_seqr |           0      0.00%      0.00% |         350    100.00%    100.00% |           0      0.00%    100.00% |           0      0.00%    100.00% |           0      0.00%    100.00% |           0      0.00%    100.00% |           0      0.00%    100.00% |           0      0.00%    100.00% |           0      0.00%    100.00% |           0      0.00%    100.00% (Unspecified)
system.caches.RequestType.Locked_RMW_Write.latency_hist_seqr::total          350                       (Unspecified)
system.caches.RequestType.Locked_RMW_Write.hit_latency_hist_seqr::bucket_size            1                       (Unspecified)
system.caches.RequestType.Locked_RMW_Write.hit_latency_hist_seqr::max_bucket            9                       (Unspecified)
system.caches.RequestType.Locked_RMW_Write.hit_latency_hist_seqr::samples          350                       (Unspecified)
system.caches.RequestType.Locked_RMW_Write.hit_latency_hist_seqr::mean            1                       (Unspecified)
system.caches.RequestType.Locked_RMW_Write.hit_latency_hist_seqr::gmean            1                       (Unspecified)
system.caches.RequestType.Locked_RMW_Write.hit_latency_hist_seqr |           0      0.00%      0.00% |         350    100.00%    100.00% |           0      0.00%    100.00% |           0      0.00%    100.00% |           0      0.00%    100.00% |           0      0.00%    100.00% |           0      0.00%    100.00% |           0      0.00%    100.00% |           0      0.00%    100.00% |           0      0.00%    100.00% (Unspecified)
system.caches.RequestType.Locked_RMW_Write.hit_latency_hist_seqr::total          350                       (Unspecified)
system.caches.RequestTypeMachineType.LD.L1Cache.miss_type_mach_latency_hist_seqr::bucket_size            4                       (Unspecified)
system.caches.RequestTypeMachineType.LD.L1Cache.miss_type_mach_latency_hist_seqr::max_bucket           39                       (Unspecified)
system.caches.RequestTypeMachineType.LD.L1Cache.miss_type_mach_latency_hist_seqr::samples           12                       (Unspecified)
system.caches.RequestTypeMachineType.LD.L1Cache.miss_type_mach_latency_hist_seqr::mean    20.166667                       (Unspecified)
system.caches.RequestTypeMachineType.LD.L1Cache.miss_type_mach_latency_hist_seqr::gmean    19.587344                       (Unspecified)
system.caches.RequestTypeMachineType.LD.L1Cache.miss_type_mach_latency_hist_seqr::stdev     5.149287                       (Unspecified)
system.caches.RequestTypeMachineType.LD.L1Cache.miss_type_mach_latency_hist_seqr |           0      0.00%      0.00% |           0      0.00%      0.00% |           0      0.00%      0.00% |           0      0.00%      0.00% |           7     58.33%     58.33% |           0      0.00%     58.33% |           5     41.67%    100.00% |           0      0.00%    100.00% |           0      0.00%    100.00% |           0      0.00%    100.00% (Unspecified)
system.caches.RequestTypeMachineType.LD.L1Cache.miss_type_mach_latency_hist_seqr::total           12                       (Unspecified)
system.caches.RequestTypeMachineType.LD.Directory.miss_type_mach_latency_hist_seqr::bucket_size           64                       (Unspecified)
system.caches.RequestTypeMachineType.LD.Directory.miss_type_mach_latency_hist_seqr::max_bucket          639                       (Unspecified)
system.caches.RequestTypeMachineType.LD.Directory.miss_type_mach_latency_hist_seqr::samples         3931                       (Unspecified)
system.caches.RequestTypeMachineType.LD.Directory.miss_type_mach_latency_hist_seqr::mean    70.793946                       (Unspecified)
system.caches.RequestTypeMachineType.LD.Directory.miss_type_mach_latency_hist_seqr::gmean    67.204712                       (Unspecified)
system.caches.RequestTypeMachineType.LD.Directory.miss_type_mach_latency_hist_seqr::stdev    32.141240                       (Unspecified)
system.caches.RequestTypeMachineType.LD.Directory.miss_type_mach_latency_hist_seqr |        2683     68.25%     68.25% |        1140     29.00%     97.25% |          44      1.12%     98.37% |          18      0.46%     98.83% |          29      0.74%     99.57% |          17      0.43%    100.00% |           0      0.00%    100.00% |           0      0.00%    100.00% |           0      0.00%    100.00% |           0      0.00%    100.00% (Unspecified)
system.caches.RequestTypeMachineType.LD.Directory.miss_type_mach_latency_hist_seqr::total         3931                       (Unspecified)
system.caches.RequestTypeMachineType.ST.L1Cache.miss_type_mach_latency_hist_seqr::bucket_size            4                       (Unspecified)
system.caches.RequestTypeMachineType.ST.L1Cache.miss_type_mach_latency_hist_seqr::max_bucket           39                       (Unspecified)
system.caches.RequestTypeMachineType.ST.L1Cache.miss_type_mach_latency_hist_seqr::samples            6                       (Unspecified)
system.caches.RequestTypeMachineType.ST.L1Cache.miss_type_mach_latency_hist_seqr::mean    17.666667                       (Unspecified)
system.caches.RequestTypeMachineType.ST.L1Cache.miss_type_mach_latency_hist_seqr::gmean    17.348511                       (Unspecified)
system.caches.RequestTypeMachineType.ST.L1Cache.miss_type_mach_latency_hist_seqr::stdev     4.082483                       (Unspecified)
system.caches.RequestTypeMachineType.ST.L1Cache.miss_type_mach_latency_hist_seqr |           0      0.00%      0.00% |           0      0.00%      0.00% |           0      0.00%      0.00% |           0      0.00%      0.00% |           5     83.33%     83.33% |           0      0.00%     83.33% |           1     16.67%    100.00% |           0      0.00%    100.00% |           0      0.00%    100.00% |           0      0.00%    100.00% (Unspecified)
system.caches.RequestTypeMachineType.ST.L1Cache.miss_type_mach_latency_hist_seqr::total            6                       (Unspecified)
system.caches.RequestTypeMachineType.ST.Directory.miss_type_mach_latency_hist_seqr::bucket_size           64                       (Unspecified)
system.caches.RequestTypeMachineType.ST.Directory.miss_type_mach_latency_hist_seqr::max_bucket          639                       (Unspecified)
system.caches.RequestTypeMachineType.ST.Directory.miss_type_mach_latency_hist_seqr::samples         1052                       (Unspecified)
system.caches.RequestTypeMachineType.ST.Directory.miss_type_mach_latency_hist_seqr::mean    65.848859                       (Unspecified)
system.caches.RequestTypeMachineType.ST.Directory.miss_type_mach_latency_hist_seqr::gmean    60.807130                       (Unspecified)
system.caches.RequestTypeMachineType.ST.Directory.miss_type_mach_latency_hist_seqr::stdev    37.368392                       (Unspecified)
system.caches.RequestTypeMachineType.ST.Directory.miss_type_mach_latency_hist_seqr |         849     80.70%     80.70% |         171     16.25%     96.96% |          11      1.05%     98.00% |           5      0.48%     98.48% |           7      0.67%     99.14% |           9      0.86%    100.00% |           0      0.00%    100.00% |           0      0.00%    100.00% |           0      0.00%    100.00% |           0      0.00%    100.00% (Unspecified)
system.caches.RequestTypeMachineType.ST.Directory.miss_type_mach_latency_hist_seqr::total         1052                       (Unspecified)
system.caches.RequestTypeMachineType.IFETCH.Directory.miss_type_mach_latency_hist_seqr::bucket_size           64                       (Unspecified)
system.caches.RequestTypeMachineType.IFETCH.Directory.miss_type_mach_latency_hist_seqr::max_bucket          639                       (Unspecified)
system.caches.RequestTypeMachineType.IFETCH.Directory.miss_type_mach_latency_hist_seqr::samples         2859                       (Unspecified)
system.caches.RequestTypeMachineType.IFETCH.Directory.miss_type_mach_latency_hist_seqr::mean    69.289262                       (Unspecified)
system.caches.RequestTypeMachineType.IFETCH.Directory.miss_type_mach_latency_hist_seqr::gmean    66.942157                       (Unspecified)
system.caches.RequestTypeMachineType.IFETCH.Directory.miss_type_mach_latency_hist_seqr::stdev    27.480089                       (Unspecified)
system.caches.RequestTypeMachineType.IFETCH.Directory.miss_type_mach_latency_hist_seqr |        2088     73.03%     73.03% |         718     25.11%     98.15% |          15      0.52%     98.67% |          10      0.35%     99.02% |          21      0.73%     99.76% |           7      0.24%    100.00% |           0      0.00%    100.00% |           0      0.00%    100.00% |           0      0.00%    100.00% |           0      0.00%    100.00% (Unspecified)
system.caches.RequestTypeMachineType.IFETCH.Directory.miss_type_mach_latency_hist_seqr::total         2859                       (Unspecified)
system.caches.RequestTypeMachineType.RMW_Read.L1Cache.miss_type_mach_latency_hist_seqr::bucket_size            2                       (Unspecified)
system.caches.RequestTypeMachineType.RMW_Read.L1Cache.miss_type_mach_latency_hist_seqr::max_bucket           19                       (Unspecified)
system.caches.RequestTypeMachineType.RMW_Read.L1Cache.miss_type_mach_latency_hist_seqr::samples            1                       (Unspecified)
system.caches.RequestTypeMachineType.RMW_Read.L1Cache.miss_type_mach_latency_hist_seqr::mean           16                       (Unspecified)
system.caches.RequestTypeMachineType.RMW_Read.L1Cache.miss_type_mach_latency_hist_seqr::gmean    16.000000                       (Unspecified)
system.caches.RequestTypeMachineType.RMW_Read.L1Cache.miss_type_mach_latency_hist_seqr::stdev          nan                       (Unspecified)
system.caches.RequestTypeMachineType.RMW_Read.L1Cache.miss_type_mach_latency_hist_seqr |           0      0.00%      0.00% |           0      0.00%      0.00% |           0      0.00%      0.00% |           0      0.00%      0.00% |           0      0.00%      0.00% |           0      0.00%      0.00% |           0      0.00%      0.00% |           0      0.00%      0.00% |           1    100.00%    100.00% |           0      0.00%    100.00% (Unspecified)
system.caches.RequestTypeMachineType.RMW_Read.L1Cache.miss_type_mach_latency_hist_seqr::total            1                       (Unspecified)
system.caches.RequestTypeMachineType.RMW_Read.Directory.miss_type_mach_latency_hist_seqr::bucket_size           16                       (Unspecified)
system.caches.RequestTypeMachineType.RMW_Read.Directory.miss_type_mach_latency_hist_seqr::max_bucket          159                       (Unspecified)
system.caches.RequestTypeMachineType.RMW_Read.Directory.miss_type_mach_latency_hist_seqr::samples           63                       (Unspecified)
system.caches.RequestTypeMachineType.RMW_Read.Directory.miss_type_mach_latency_hist_seqr::mean    57.253968                       (Unspecified)
system.caches.RequestTypeMachineType.RMW_Read.Directory.miss_type_mach_latency_hist_seqr::gmean    54.735636                       (Unspecified)
system.caches.RequestTypeMachineType.RMW_Read.Directory.miss_type_mach_latency_hist_seqr::stdev    15.732613                       (Unspecified)
system.caches.RequestTypeMachineType.RMW_Read.Directory.miss_type_mach_latency_hist_seqr |           0      0.00%      0.00% |           4      6.35%      6.35% |           5      7.94%     14.29% |          40     63.49%     77.78% |          10     15.87%     93.65% |           4      6.35%    100.00% |           0      0.00%    100.00% |           0      0.00%    100.00% |           0      0.00%    100.00% |           0      0.00%    100.00% (Unspecified)
system.caches.RequestTypeMachineType.RMW_Read.Directory.miss_type_mach_latency_hist_seqr::total           63                       (Unspecified)
system.caches.RequestTypeMachineType.Locked_RMW_Read.L1Cache.miss_type_mach_latency_hist_seqr::bucket_size            4                       (Unspecified)
system.caches.RequestTypeMachineType.Locked_RMW_Read.L1Cache.miss_type_mach_latency_hist_seqr::max_bucket           39                       (Unspecified)
system.caches.RequestTypeMachineType.Locked_RMW_Read.L1Cache.miss_type_mach_latency_hist_seqr::samples            3                       (Unspecified)
system.caches.RequestTypeMachineType.Locked_RMW_Read.L1Cache.miss_type_mach_latency_hist_seqr::mean    19.333333                       (Unspecified)
system.caches.RequestTypeMachineType.Locked_RMW_Read.L1Cache.miss_type_mach_latency_hist_seqr::gmean    18.810678                       (Unspecified)
system.caches.RequestTypeMachineType.Locked_RMW_Read.L1Cache.miss_type_mach_latency_hist_seqr::stdev     5.773503                       (Unspecified)
system.caches.RequestTypeMachineType.Locked_RMW_Read.L1Cache.miss_type_mach_latency_hist_seqr |           0      0.00%      0.00% |           0      0.00%      0.00% |           0      0.00%      0.00% |           0      0.00%      0.00% |           2     66.67%     66.67% |           0      0.00%     66.67% |           1     33.33%    100.00% |           0      0.00%    100.00% |           0      0.00%    100.00% |           0      0.00%    100.00% (Unspecified)
system.caches.RequestTypeMachineType.Locked_RMW_Read.L1Cache.miss_type_mach_latency_hist_seqr::total            3                       (Unspecified)
system.caches.RequestTypeMachineType.Locked_RMW_Read.Directory.miss_type_mach_latency_hist_seqr::bucket_size            8                       (Unspecified)
system.caches.RequestTypeMachineType.Locked_RMW_Read.Directory.miss_type_mach_latency_hist_seqr::max_bucket           79                       (Unspecified)
system.caches.RequestTypeMachineType.Locked_RMW_Read.Directory.miss_type_mach_latency_hist_seqr::samples           22                       (Unspecified)
system.caches.RequestTypeMachineType.Locked_RMW_Read.Directory.miss_type_mach_latency_hist_seqr::mean    46.045455                       (Unspecified)
system.caches.RequestTypeMachineType.Locked_RMW_Read.Directory.miss_type_mach_latency_hist_seqr::gmean    41.402865                       (Unspecified)
system.caches.RequestTypeMachineType.Locked_RMW_Read.Directory.miss_type_mach_latency_hist_seqr::stdev    20.270733                       (Unspecified)
system.caches.RequestTypeMachineType.Locked_RMW_Read.Directory.miss_type_mach_latency_hist_seqr |           0      0.00%      0.00% |           0      0.00%      0.00% |           8     36.36%     36.36% |           0      0.00%     36.36% |           1      4.55%     40.91% |           0      0.00%     40.91% |           6     27.27%     68.18% |           2      9.09%     77.27% |           2      9.09%     86.36% |           3     13.64%    100.00% (Unspecified)
system.caches.RequestTypeMachineType.Locked_RMW_Read.Directory.miss_type_mach_latency_hist_seqr::total           22                       (Unspecified)
system.caches.controllers0.fullyBusyCycles        62490                       # cycles for which number of transistions == max transitions (Unspecified)
system.caches.controllers0.cacheMemory.m_demand_hits            0                       # Number of cache demand hits (Unspecified)
system.caches.controllers0.cacheMemory.m_demand_misses            0                       # Number of cache demand misses (Unspecified)
system.caches.controllers0.cacheMemory.m_demand_accesses            0                       # Number of cache demand accesses (Unspecified)
system.caches.controllers0.forwardFromDir.m_buf_msgs     0.002992                       # Average number of messages in buffer (Unspecified)
system.caches.controllers0.forwardFromDir.m_stall_time  4961.914437                       # Average number of cycles messages are stalled in this MB (Unspecified)
system.caches.controllers0.mandatoryQueue.m_buf_msgs     0.206823                       # Average number of messages in buffer (Unspecified)
system.caches.controllers0.mandatoryQueue.m_stall_time  2855.393625                       # Average number of cycles messages are stalled in this MB (Unspecified)
system.caches.controllers0.power_state.pwrStateResidencyTicks::UNDEFINED   2096595000                       # Cumulative time (in ticks) in various power states (Tick)
system.caches.controllers0.requestToDir.m_buf_msgs     0.006163                       # Average number of messages in buffer (Unspecified)
system.caches.controllers0.requestToDir.m_stall_time   999.999046                       # Average number of cycles messages are stalled in this MB (Unspecified)
system.caches.controllers0.responseFromDirOrSibling.m_buf_msgs     0.003185                       # Average number of messages in buffer (Unspecified)
system.caches.controllers0.responseFromDirOrSibling.m_stall_time  4999.825908                       # Average number of cycles messages are stalled in this MB (Unspecified)
system.caches.controllers0.responseToDirOrSibling.m_buf_msgs     0.000015                       # Average number of messages in buffer (Unspecified)
system.caches.controllers0.responseToDirOrSibling.m_stall_time   438.805301                       # Average number of cycles messages are stalled in this MB (Unspecified)
system.caches.controllers1.fullyBusyCycles         9870                       # cycles for which number of transistions == max transitions (Unspecified)
system.caches.controllers1.cacheMemory.m_demand_hits            0                       # Number of cache demand hits (Unspecified)
system.caches.controllers1.cacheMemory.m_demand_misses            0                       # Number of cache demand misses (Unspecified)
system.caches.controllers1.cacheMemory.m_demand_accesses            0                       # Number of cache demand accesses (Unspecified)
system.caches.controllers1.forwardFromDir.m_buf_msgs     0.000476                       # Average number of messages in buffer (Unspecified)
system.caches.controllers1.forwardFromDir.m_stall_time  2191.644072                       # Average number of cycles messages are stalled in this MB (Unspecified)
system.caches.controllers1.mandatoryQueue.m_buf_msgs     0.198716                       # Average number of messages in buffer (Unspecified)
system.caches.controllers1.mandatoryQueue.m_stall_time   714.939700                       # Average number of cycles messages are stalled in this MB (Unspecified)
system.caches.controllers1.power_state.pwrStateResidencyTicks::UNDEFINED   2096595000                       # Cumulative time (in ticks) in various power states (Tick)
system.caches.controllers1.requestToDir.m_buf_msgs     0.001079                       # Average number of messages in buffer (Unspecified)
system.caches.controllers1.requestToDir.m_stall_time   438.839166                       # Average number of cycles messages are stalled in this MB (Unspecified)
system.caches.controllers1.responseFromDirOrSibling.m_buf_msgs     0.000612                       # Average number of messages in buffer (Unspecified)
system.caches.controllers1.responseFromDirOrSibling.m_stall_time  2194.076587                       # Average number of cycles messages are stalled in this MB (Unspecified)
system.caches.controllers1.responseToDirOrSibling.m_buf_msgs     0.000007                       # Average number of messages in buffer (Unspecified)
system.caches.controllers1.responseToDirOrSibling.m_stall_time   438.328337                       # Average number of cycles messages are stalled in this MB (Unspecified)
system.caches.controllers2.cacheMemory.m_demand_hits            0                       # Number of cache demand hits (Unspecified)
system.caches.controllers2.cacheMemory.m_demand_misses            0                       # Number of cache demand misses (Unspecified)
system.caches.controllers2.cacheMemory.m_demand_accesses            0                       # Number of cache demand accesses (Unspecified)
system.caches.controllers2.power_state.pwrStateResidencyTicks::UNDEFINED   2096595000                       # Cumulative time (in ticks) in various power states (Tick)
system.caches.controllers3.cacheMemory.m_demand_hits            0                       # Number of cache demand hits (Unspecified)
system.caches.controllers3.cacheMemory.m_demand_misses            0                       # Number of cache demand misses (Unspecified)
system.caches.controllers3.cacheMemory.m_demand_accesses            0                       # Number of cache demand accesses (Unspecified)
system.caches.controllers3.power_state.pwrStateResidencyTicks::UNDEFINED   2096595000                       # Cumulative time (in ticks) in various power states (Tick)
system.caches.controllers4.forwardToCache.m_buf_msgs     0.003551                       # Average number of messages in buffer (Unspecified)
system.caches.controllers4.forwardToCache.m_stall_time   999.015547                       # Average number of cycles messages are stalled in this MB (Unspecified)
system.caches.controllers4.power_state.pwrStateResidencyTicks::UNDEFINED   2096595000                       # Cumulative time (in ticks) in various power states (Tick)
system.caches.controllers4.requestFromCache.m_buf_msgs     0.007243                       # Average number of messages in buffer (Unspecified)
system.caches.controllers4.requestFromCache.m_stall_time  4999.985691                       # Average number of cycles messages are stalled in this MB (Unspecified)
system.caches.controllers4.requestToMemory.m_buf_msgs     0.004288                       # Average number of messages in buffer (Unspecified)
system.caches.controllers4.requestToMemory.m_stall_time  1000.036726                       # Average number of cycles messages are stalled in this MB (Unspecified)
system.caches.controllers4.responseFromCache.m_buf_msgs     0.000006                       # Average number of messages in buffer (Unspecified)
system.caches.controllers4.responseFromCache.m_stall_time  2194.016967                       # Average number of cycles messages are stalled in this MB (Unspecified)
system.caches.controllers4.responseFromMemory.m_buf_msgs     0.005545                       # Average number of messages in buffer (Unspecified)
system.caches.controllers4.responseFromMemory.m_stall_time   999.967566                       # Average number of cycles messages are stalled in this MB (Unspecified)
system.caches.controllers4.responseToCache.m_buf_msgs     0.003781                       # Average number of messages in buffer (Unspecified)
system.caches.controllers4.responseToCache.m_stall_time   999.967089                       # Average number of cycles messages are stalled in this MB (Unspecified)
system.caches.network.msg_count.Control         42834                       (Unspecified)
system.caches.network.msg_byte.Control         342672                       (Unspecified)
system.caches.network.msg_count.Data            18022                       (Unspecified)
system.caches.network.msg_byte.Data           1297584                       (Unspecified)
system.caches.network.int_link_buffers11.m_buf_msgs     0.000004                       # Average number of messages in buffer (Unspecified)
system.caches.network.int_link_buffers11.m_stall_time  1316.413042                       # Average number of cycles messages are stalled in this MB (Unspecified)
system.caches.network.int_link_buffers14.m_buf_msgs     0.000005                       # Average number of messages in buffer (Unspecified)
system.caches.network.int_link_buffers14.m_stall_time  1314.982150                       # Average number of cycles messages are stalled in this MB (Unspecified)
system.caches.network.int_link_buffers2.m_buf_msgs     0.000011                       # Average number of messages in buffer (Unspecified)
system.caches.network.int_link_buffers2.m_stall_time  1316.413042                       # Average number of cycles messages are stalled in this MB (Unspecified)
system.caches.network.int_link_buffers21.m_buf_msgs     0.001079                       # Average number of messages in buffer (Unspecified)
system.caches.network.int_link_buffers21.m_stall_time  1316.514635                       # Average number of cycles messages are stalled in this MB (Unspecified)
system.caches.network.int_link_buffers23.m_buf_msgs     0.000001                       # Average number of messages in buffer (Unspecified)
system.caches.network.int_link_buffers23.m_stall_time  1314.982150                       # Average number of cycles messages are stalled in this MB (Unspecified)
system.caches.network.int_link_buffers49.m_buf_msgs     0.002992                       # Average number of messages in buffer (Unspecified)
system.caches.network.int_link_buffers49.m_stall_time  2977.151524                       # Average number of cycles messages are stalled in this MB (Unspecified)
system.caches.network.int_link_buffers50.m_buf_msgs     0.003180                       # Average number of messages in buffer (Unspecified)
system.caches.network.int_link_buffers50.m_stall_time  2999.898407                       # Average number of cycles messages are stalled in this MB (Unspecified)
system.caches.network.int_link_buffers52.m_buf_msgs     0.000476                       # Average number of messages in buffer (Unspecified)
system.caches.network.int_link_buffers52.m_stall_time  1314.989305                       # Average number of cycles messages are stalled in this MB (Unspecified)
system.caches.network.int_link_buffers53.m_buf_msgs     0.000601                       # Average number of messages in buffer (Unspecified)
system.caches.network.int_link_buffers53.m_stall_time  1316.448814                       # Average number of cycles messages are stalled in this MB (Unspecified)
system.caches.network.int_link_buffers9.m_buf_msgs     0.006163                       # Average number of messages in buffer (Unspecified)
system.caches.network.int_link_buffers9.m_stall_time  2999.994276                       # Average number of cycles messages are stalled in this MB (Unspecified)
system.caches.network.power_state.pwrStateResidencyTicks::UNDEFINED   2096595000                       # Cumulative time (in ticks) in various power states (Tick)
system.caches.network.routers0.percent_links_utilized     0.415149                       (Unspecified)
system.caches.network.routers0.msg_count.Control::0        11978                       (Unspecified)
system.caches.network.routers0.msg_count.Control::1         6272                       (Unspecified)
system.caches.network.routers0.msg_count.Control::2           12                       (Unspecified)
system.caches.network.routers0.msg_bytes.Control::0        95824                       (Unspecified)
system.caches.network.routers0.msg_bytes.Control::1        50176                       (Unspecified)
system.caches.network.routers0.msg_bytes.Control::2           96                       (Unspecified)
system.caches.network.routers0.msg_count.Data::0          944                       (Unspecified)
system.caches.network.routers0.msg_count.Data::2         6698                       (Unspecified)
system.caches.network.routers0.msg_bytes.Data::0        67968                       (Unspecified)
system.caches.network.routers0.msg_bytes.Data::2       482256                       (Unspecified)
system.caches.network.routers0.port_buffers1.m_buf_msgs     0.002992                       # Average number of messages in buffer (Unspecified)
system.caches.network.routers0.port_buffers1.m_stall_time  3969.533458                       # Average number of cycles messages are stalled in this MB (Unspecified)
system.caches.network.routers0.port_buffers12.m_buf_msgs     0.006163                       # Average number of messages in buffer (Unspecified)
system.caches.network.routers0.port_buffers12.m_stall_time  1999.997138                       # Average number of cycles messages are stalled in this MB (Unspecified)
system.caches.network.routers0.port_buffers14.m_buf_msgs     0.000004                       # Average number of messages in buffer (Unspecified)
system.caches.network.routers0.port_buffers14.m_stall_time   877.609649                       # Average number of cycles messages are stalled in this MB (Unspecified)
system.caches.network.routers0.port_buffers2.m_buf_msgs     0.003185                       # Average number of messages in buffer (Unspecified)
system.caches.network.routers0.port_buffers2.m_stall_time  3999.862634                       # Average number of cycles messages are stalled in this MB (Unspecified)
system.caches.network.routers0.port_buffers5.m_buf_msgs     0.000011                       # Average number of messages in buffer (Unspecified)
system.caches.network.routers0.port_buffers5.m_stall_time   877.609649                       # Average number of cycles messages are stalled in this MB (Unspecified)
system.caches.network.routers0.power_state.pwrStateResidencyTicks::UNDEFINED   2096595000                       # Cumulative time (in ticks) in various power states (Tick)
system.caches.network.routers0.throttle00.link_utilization     1.581946                       (Unspecified)
system.caches.network.routers0.throttle00.msg_count.Control::1         6272                       (Unspecified)
system.caches.network.routers0.throttle00.msg_count.Control::2            5                       (Unspecified)
system.caches.network.routers0.throttle00.msg_bytes.Control::1        50176                       (Unspecified)
system.caches.network.routers0.throttle00.msg_bytes.Control::2           40                       (Unspecified)
system.caches.network.routers0.throttle00.msg_count.Data::2         6673                       (Unspecified)
system.caches.network.routers0.throttle00.msg_bytes.Data::2       480456                       (Unspecified)
system.caches.network.routers0.throttle01.link_utilization     0.003601                       (Unspecified)
system.caches.network.routers0.throttle01.msg_count.Control::2            7                       (Unspecified)
system.caches.network.routers0.throttle01.msg_bytes.Control::2           56                       (Unspecified)
system.caches.network.routers0.throttle01.msg_count.Data::2           16                       (Unspecified)
system.caches.network.routers0.throttle01.msg_bytes.Data::2         1152                       (Unspecified)
system.caches.network.routers0.throttle02.link_utilization            0                       (Unspecified)
system.caches.network.routers0.throttle03.link_utilization            0                       (Unspecified)
system.caches.network.routers0.throttle04.link_utilization     0.490200                       (Unspecified)
system.caches.network.routers0.throttle04.msg_count.Control::0        11978                       (Unspecified)
system.caches.network.routers0.throttle04.msg_bytes.Control::0        95824                       (Unspecified)
system.caches.network.routers0.throttle04.msg_count.Data::0          944                       (Unspecified)
system.caches.network.routers0.throttle04.msg_count.Data::2            9                       (Unspecified)
system.caches.network.routers0.throttle04.msg_bytes.Data::0        67968                       (Unspecified)
system.caches.network.routers0.throttle04.msg_bytes.Data::2          648                       (Unspecified)
system.caches.network.routers1.percent_links_utilized     0.074817                       (Unspecified)
system.caches.network.routers1.msg_count.Control::0         2157                       (Unspecified)
system.caches.network.routers1.msg_count.Control::1          998                       (Unspecified)
system.caches.network.routers1.msg_count.Control::2           12                       (Unspecified)
system.caches.network.routers1.msg_bytes.Control::0        17256                       (Unspecified)
system.caches.network.routers1.msg_bytes.Control::1         7984                       (Unspecified)
system.caches.network.routers1.msg_bytes.Control::2           96                       (Unspecified)
system.caches.network.routers1.msg_count.Data::0          106                       (Unspecified)
system.caches.network.routers1.msg_count.Data::2         1285                       (Unspecified)
system.caches.network.routers1.msg_bytes.Data::0         7632                       (Unspecified)
system.caches.network.routers1.msg_bytes.Data::2        92520                       (Unspecified)
system.caches.network.routers1.port_buffers1.m_buf_msgs     0.000476                       # Average number of messages in buffer (Unspecified)
system.caches.network.routers1.port_buffers1.m_stall_time  1753.317165                       # Average number of cycles messages are stalled in this MB (Unspecified)
system.caches.network.routers1.port_buffers12.m_buf_msgs     0.001079                       # Average number of messages in buffer (Unspecified)
system.caches.network.routers1.port_buffers12.m_stall_time   877.677377                       # Average number of cycles messages are stalled in this MB (Unspecified)
system.caches.network.routers1.port_buffers14.m_buf_msgs     0.000001                       # Average number of messages in buffer (Unspecified)
system.caches.network.routers1.port_buffers14.m_stall_time   876.655721                       # Average number of cycles messages are stalled in this MB (Unspecified)
system.caches.network.routers1.port_buffers2.m_buf_msgs     0.000612                       # Average number of messages in buffer (Unspecified)
system.caches.network.routers1.port_buffers2.m_stall_time  1755.263178                       # Average number of cycles messages are stalled in this MB (Unspecified)
system.caches.network.routers1.port_buffers5.m_buf_msgs     0.000005                       # Average number of messages in buffer (Unspecified)
system.caches.network.routers1.port_buffers5.m_stall_time   876.655721                       # Average number of cycles messages are stalled in this MB (Unspecified)
system.caches.network.routers1.power_state.pwrStateResidencyTicks::UNDEFINED   2096595000                       # Cumulative time (in ticks) in various power states (Tick)
system.caches.network.routers1.throttle00.link_utilization     0.297840                       (Unspecified)
system.caches.network.routers1.throttle00.msg_count.Control::1          998                       (Unspecified)
system.caches.network.routers1.throttle00.msg_count.Control::2            7                       (Unspecified)
system.caches.network.routers1.throttle00.msg_bytes.Control::1         7984                       (Unspecified)
system.caches.network.routers1.throttle00.msg_bytes.Control::2           56                       (Unspecified)
system.caches.network.routers1.throttle00.msg_count.Data::2         1276                       (Unspecified)
system.caches.network.routers1.throttle00.msg_bytes.Data::2        91872                       (Unspecified)
system.caches.network.routers1.throttle01.link_utilization     0.001407                       (Unspecified)
system.caches.network.routers1.throttle01.msg_count.Control::2            5                       (Unspecified)
system.caches.network.routers1.throttle01.msg_bytes.Control::2           40                       (Unspecified)
system.caches.network.routers1.throttle01.msg_count.Data::2            6                       (Unspecified)
system.caches.network.routers1.throttle01.msg_bytes.Data::2          432                       (Unspecified)
system.caches.network.routers1.throttle02.link_utilization            0                       (Unspecified)
system.caches.network.routers1.throttle03.link_utilization            0                       (Unspecified)
system.caches.network.routers1.throttle04.link_utilization     0.074836                       (Unspecified)
system.caches.network.routers1.throttle04.msg_count.Control::0         2157                       (Unspecified)
system.caches.network.routers1.throttle04.msg_bytes.Control::0        17256                       (Unspecified)
system.caches.network.routers1.throttle04.msg_count.Data::0          106                       (Unspecified)
system.caches.network.routers1.throttle04.msg_count.Data::2            3                       (Unspecified)
system.caches.network.routers1.throttle04.msg_bytes.Data::0         7632                       (Unspecified)
system.caches.network.routers1.throttle04.msg_bytes.Data::2          216                       (Unspecified)
system.caches.network.routers2.percent_links_utilized            0                       (Unspecified)
system.caches.network.routers2.power_state.pwrStateResidencyTicks::UNDEFINED   2096595000                       # Cumulative time (in ticks) in various power states (Tick)
system.caches.network.routers2.throttle00.link_utilization            0                       (Unspecified)
system.caches.network.routers2.throttle01.link_utilization            0                       (Unspecified)
system.caches.network.routers2.throttle02.link_utilization            0                       (Unspecified)
system.caches.network.routers2.throttle03.link_utilization            0                       (Unspecified)
[...]
system.mem_ctrl.rdPerTurnAround::96-127             8     12.90%     70.97% # Reads before turning the bus around for writes (Count)
system.mem_ctrl.rdPerTurnAround::128-159            8     12.90%     83.87% # Reads before turning the bus around for writes (Count)
system.mem_ctrl.rdPerTurnAround::160-191            3      4.84%     88.71% # Reads before turning the bus around for writes (Count)
system.mem_ctrl.rdPerTurnAround::192-223            1      1.61%     90.32% # Reads before turning the bus around for writes (Count)
system.mem_ctrl.rdPerTurnAround::224-255            1      1.61%     91.94% # Reads before turning the bus around for writes (Count)
system.mem_ctrl.rdPerTurnAround::288-319            1      1.61%     93.55% # Reads before turning the bus around for writes (Count)
system.mem_ctrl.rdPerTurnAround::320-351            1      1.61%     95.16% # Reads before turning the bus around for writes (Count)
system.mem_ctrl.rdPerTurnAround::352-383            1      1.61%     96.77% # Reads before turning the bus around for writes (Count)
system.mem_ctrl.rdPerTurnAround::416-447            1      1.61%     98.39% # Reads before turning the bus around for writes (Count)
system.mem_ctrl.rdPerTurnAround::928-959            1      1.61%    100.00% # Reads before turning the bus around for writes (Count)
system.mem_ctrl.rdPerTurnAround::total             62                       # Reads before turning the bus around for writes (Count)
system.mem_ctrl.wrPerTurnAround::samples           62                       # Writes before turning the bus around for reads (Count)
system.mem_ctrl.wrPerTurnAround::mean       16.064516                       # Writes before turning the bus around for reads (Count)
system.mem_ctrl.wrPerTurnAround::gmean      16.060907                       # Writes before turning the bus around for reads (Count)
system.mem_ctrl.wrPerTurnAround::stdev       0.356254                       # Writes before turning the bus around for reads (Count)
system.mem_ctrl.wrPerTurnAround::16                60     96.77%     96.77% # Writes before turning the bus around for reads (Count)
system.mem_ctrl.wrPerTurnAround::18                 2      3.23%    100.00% # Writes before turning the bus around for reads (Count)
system.mem_ctrl.wrPerTurnAround::total             62                       # Writes before turning the bus around for reads (Count)
system.mem_ctrl.bytesReadWrQ                    18560                       # Total number of bytes read from write queue (Byte)
system.mem_ctrl.bytesReadSys                   507328                       # Total read bytes from the system interface side (Byte)
system.mem_ctrl.bytesWrittenSys                 67968                       # Total written bytes from the system interface side (Byte)
system.mem_ctrl.avgRdBWSys               241977110.50536701                       # Average system read bandwidth in Byte/s ((Byte/Second))
system.mem_ctrl.avgWrBWSys               32418278.20823764                       # Average system write bandwidth in Byte/s ((Byte/Second))
system.mem_ctrl.totGap                     2096536000                       # Total gap between requests (Tick)
system.mem_ctrl.avgGap                      233233.51                       # Average gap between requests ((Tick/Count))
system.mem_ctrl.requestorReadBytes::caches.controllers4       488768                       # Per-requestor bytes read from memory (Byte)
system.mem_ctrl.requestorWriteBytes::caches.controllers4        63744                       # Per-requestor bytes write to memory (Byte)
system.mem_ctrl.requestorReadRate::caches.controllers4 233124661.653776705265                       # Per-requestor bytes read from memory rate ((Byte/Second))
system.mem_ctrl.requestorWriteRate::caches.controllers4 30403582.952358465642                       # Per-requestor bytes write to memory rate ((Byte/Second))
system.mem_ctrl.requestorReadAccesses::caches.controllers4         7927                       # Per-requestor read serviced memory accesses (Count)
system.mem_ctrl.requestorWriteAccesses::caches.controllers4         1062                       # Per-requestor write serviced memory accesses (Count)
system.mem_ctrl.requestorReadTotalLat::caches.controllers4    216663000                       # Per-requestor read total memory access latency (Tick)
system.mem_ctrl.requestorWriteTotalLat::caches.controllers4  49759549750                       # Per-requestor write total memory access latency (Tick)
system.mem_ctrl.requestorReadAvgLat::caches.controllers4     27332.28                       # Per-requestor read average memory access latency ((Tick/Count))
system.mem_ctrl.requestorWriteAvgLat::caches.controllers4  46854566.62                       # Per-requestor write average memory access latency ((Tick/Count))
system.mem_ctrl.dram.bytesRead::caches.controllers4       507328                       # Number of bytes read from this memory (Byte)
system.mem_ctrl.dram.bytesRead::total          507328                       # Number of bytes read from this memory (Byte)
system.mem_ctrl.dram.bytesWritten::caches.controllers4        67968                       # Number of bytes written to this memory (Byte)
system.mem_ctrl.dram.bytesWritten::total        67968                       # Number of bytes written to this memory (Byte)
system.mem_ctrl.dram.numReads::caches.controllers4         7927                       # Number of read requests responded to by this memory (Count)
system.mem_ctrl.dram.numReads::total             7927                       # Number of read requests responded to by this memory (Count)
system.mem_ctrl.dram.numWrites::caches.controllers4         1062                       # Number of write requests responded to by this memory (Count)
system.mem_ctrl.dram.numWrites::total            1062                       # Number of write requests responded to by this memory (Count)
system.mem_ctrl.dram.bwRead::caches.controllers4    241977111                       # Total read bandwidth from this memory ((Byte/Second))
system.mem_ctrl.dram.bwRead::total          241977111                       # Total read bandwidth from this memory ((Byte/Second))
system.mem_ctrl.dram.bwWrite::caches.controllers4     32418278                       # Write bandwidth from this memory ((Byte/Second))
system.mem_ctrl.dram.bwWrite::total          32418278                       # Write bandwidth from this memory ((Byte/Second))
system.mem_ctrl.dram.bwTotal::caches.controllers4    274395389                       # Total bandwidth to/from this memory ((Byte/Second))
system.mem_ctrl.dram.bwTotal::total         274395389                       # Total bandwidth to/from this memory ((Byte/Second))
system.mem_ctrl.dram.readBursts                  7637                       # Number of DRAM read bursts (Count)
system.mem_ctrl.dram.writeBursts                  996                       # Number of DRAM write bursts (Count)
system.mem_ctrl.dram.perBankRdBursts::0           487                       # Per bank write bursts (Count)
system.mem_ctrl.dram.perBankRdBursts::1           501                       # Per bank write bursts (Count)
system.mem_ctrl.dram.perBankRdBursts::2           542                       # Per bank write bursts (Count)
system.mem_ctrl.dram.perBankRdBursts::3           572                       # Per bank write bursts (Count)
system.mem_ctrl.dram.perBankRdBursts::4           377                       # Per bank write bursts (Count)
system.mem_ctrl.dram.perBankRdBursts::5           453                       # Per bank write bursts (Count)
system.mem_ctrl.dram.perBankRdBursts::6           323                       # Per bank write bursts (Count)
system.mem_ctrl.dram.perBankRdBursts::7           748                       # Per bank write bursts (Count)
system.mem_ctrl.dram.perBankRdBursts::8           941                       # Per bank write bursts (Count)
system.mem_ctrl.dram.perBankRdBursts::9           331                       # Per bank write bursts (Count)
system.mem_ctrl.dram.perBankRdBursts::10          279                       # Per bank write bursts (Count)
system.mem_ctrl.dram.perBankRdBursts::11          298                       # Per bank write bursts (Count)
system.mem_ctrl.dram.perBankRdBursts::12          244                       # Per bank write bursts (Count)
system.mem_ctrl.dram.perBankRdBursts::13          177                       # Per bank write bursts (Count)
system.mem_ctrl.dram.perBankRdBursts::14          756                       # Per bank write bursts (Count)
system.mem_ctrl.dram.perBankRdBursts::15          608                       # Per bank write bursts (Count)
system.mem_ctrl.dram.perBankWrBursts::0             8                       # Per bank write bursts (Count)
system.mem_ctrl.dram.perBankWrBursts::1            16                       # Per bank write bursts (Count)
system.mem_ctrl.dram.perBankWrBursts::2           102                       # Per bank write bursts (Count)
system.mem_ctrl.dram.perBankWrBursts::3           105                       # Per bank write bursts (Count)
system.mem_ctrl.dram.perBankWrBursts::4             1                       # Per bank write bursts (Count)
system.mem_ctrl.dram.perBankWrBursts::5            49                       # Per bank write bursts (Count)
system.mem_ctrl.dram.perBankWrBursts::6            57                       # Per bank write bursts (Count)
system.mem_ctrl.dram.perBankWrBursts::7           127                       # Per bank write bursts (Count)
system.mem_ctrl.dram.perBankWrBursts::8           271                       # Per bank write bursts (Count)
system.mem_ctrl.dram.perBankWrBursts::9             1                       # Per bank write bursts (Count)
system.mem_ctrl.dram.perBankWrBursts::10           53                       # Per bank write bursts (Count)
system.mem_ctrl.dram.perBankWrBursts::11            0                       # Per bank write bursts (Count)
system.mem_ctrl.dram.perBankWrBursts::12            0                       # Per bank write bursts (Count)
system.mem_ctrl.dram.perBankWrBursts::13            0                       # Per bank write bursts (Count)
system.mem_ctrl.dram.perBankWrBursts::14          166                       # Per bank write bursts (Count)
system.mem_ctrl.dram.perBankWrBursts::15           40                       # Per bank write bursts (Count)
system.mem_ctrl.dram.totQLat                 73469250                       # Total ticks spent queuing (Tick)
system.mem_ctrl.dram.totBusLat               38185000                       # Total ticks spent in databus transfers (Tick)
system.mem_ctrl.dram.totMemAccLat           216663000                       # Total ticks spent from burst creation until serviced by the DRAM (Tick)
system.mem_ctrl.dram.avgQLat                  9620.17                       # Average queueing delay per DRAM burst ((Tick/Count))
system.mem_ctrl.dram.avgBusLat                5000.00                       # Average bus latency per DRAM burst ((Tick/Count))
system.mem_ctrl.dram.avgMemAccLat            28370.17                       # Average memory access latency per DRAM burst ((Tick/Count))
system.mem_ctrl.dram.readRowHits                 5439                       # Number of row buffer hits during reads (Count)
system.mem_ctrl.dram.writeRowHits                 871                       # Number of row buffer hits during writes (Count)
system.mem_ctrl.dram.readRowHitRate             71.22                       # Row buffer hit rate for reads (Ratio)
system.mem_ctrl.dram.writeRowHitRate            87.45                       # Row buffer hit rate for writes (Ratio)
system.mem_ctrl.dram.bytesPerActivate::samples         2317                       # Bytes accessed per row activation (Byte)
system.mem_ctrl.dram.bytesPerActivate::mean   237.935261                       # Bytes accessed per row activation (Byte)
system.mem_ctrl.dram.bytesPerActivate::gmean   152.194786                       # Bytes accessed per row activation (Byte)
system.mem_ctrl.dram.bytesPerActivate::stdev   262.249794                       # Bytes accessed per row activation (Byte)
system.mem_ctrl.dram.bytesPerActivate::0-127          916     39.53%     39.53% # Bytes accessed per row activation (Byte)
system.mem_ctrl.dram.bytesPerActivate::128-255          701     30.25%     69.79% # Bytes accessed per row activation (Byte)
system.mem_ctrl.dram.bytesPerActivate::256-383          257     11.09%     80.88% # Bytes accessed per row activation (Byte)
system.mem_ctrl.dram.bytesPerActivate::384-511          119      5.14%     86.02% # Bytes accessed per row activation (Byte)
system.mem_ctrl.dram.bytesPerActivate::512-639           69      2.98%     88.99% # Bytes accessed per row activation (Byte)
system.mem_ctrl.dram.bytesPerActivate::640-767           59      2.55%     91.54% # Bytes accessed per row activation (Byte)
system.mem_ctrl.dram.bytesPerActivate::768-895           42      1.81%     93.35% # Bytes accessed per row activation (Byte)
system.mem_ctrl.dram.bytesPerActivate::896-1023           32      1.38%     94.73% # Bytes accessed per row activation (Byte)
system.mem_ctrl.dram.bytesPerActivate::1024-1151          122      5.27%    100.00% # Bytes accessed per row activation (Byte)
system.mem_ctrl.dram.bytesPerActivate::total         2317                       # Bytes accessed per row activation (Byte)
system.mem_ctrl.dram.bytesRead                 488768                       # Total number of bytes read from DRAM (Byte)
system.mem_ctrl.dram.bytesWritten               63744                       # Total number of bytes written to DRAM (Byte)
system.mem_ctrl.dram.avgRdBW               233.124662                       # Average DRAM read bandwidth in MiBytes/s ((Byte/Second))
system.mem_ctrl.dram.avgWrBW                30.403583                       # Average DRAM write bandwidth in MiBytes/s ((Byte/Second))
system.mem_ctrl.dram.peakBW                  12800.00                       # Theoretical peak bandwidth in MiByte/s ((Byte/Second))
system.mem_ctrl.dram.busUtil                     2.06                       # Data bus utilization in percentage (Ratio)
system.mem_ctrl.dram.busUtilRead                 1.82                       # Data bus utilization in percentage for reads (Ratio)
system.mem_ctrl.dram.busUtilWrite                0.24                       # Data bus utilization in percentage for writes (Ratio)
system.mem_ctrl.dram.pageHitRate                73.09                       # Row buffer hit rate, read and write combined (Ratio)
system.mem_ctrl.dram.power_state.pwrStateResidencyTicks::UNDEFINED   2096595000                       # Cumulative time (in ticks) in various power states (Tick)
system.mem_ctrl.dram.rank0.actEnergy          8989260                       # Energy for activate commands per rank (pJ) (Joule)
system.mem_ctrl.dram.rank0.preEnergy          4766520                       # Energy for precharge commands per rank (pJ) (Joule)
system.mem_ctrl.dram.rank0.readEnergy        28581420                       # Energy for read commands per rank (pJ) (Joule)
system.mem_ctrl.dram.rank0.writeEnergy        2427300                       # Energy for write commands per rank (pJ) (Joule)
system.mem_ctrl.dram.rank0.refreshEnergy 165338160.000000                       # Energy for refresh commands per rank (pJ) (Joule)
system.mem_ctrl.dram.rank0.actBackEnergy    594144630                       # Energy for active background per rank (pJ) (Joule)
system.mem_ctrl.dram.rank0.preBackEnergy    304760160                       # Energy for precharge background per rank (pJ) (Joule)
system.mem_ctrl.dram.rank0.actPowerDownEnergy            0                       # Energy for active power-down per rank (pJ) (Joule)
system.mem_ctrl.dram.rank0.prePowerDownEnergy            0                       # Energy for precharge power-down per rank (pJ) (Joule)
system.mem_ctrl.dram.rank0.selfRefreshEnergy            0                       # Energy for self refresh per rank (pJ) (Joule)
system.mem_ctrl.dram.rank0.totalEnergy     1109007450                       # Total energy per rank (pJ) (Joule)
system.mem_ctrl.dram.rank0.averagePower    528.956451                       # Core power per rank (mW) (Watt)
system.mem_ctrl.dram.rank0.totalIdleTime            0                       # Total Idle time Per DRAM Rank (Tick)
system.mem_ctrl.dram.rank0.pwrStateTime::IDLE    786811000                       # Time in different power states (Tick)
system.mem_ctrl.dram.rank0.pwrStateTime::REF     69940000                       # Time in different power states (Tick)
system.mem_ctrl.dram.rank0.pwrStateTime::SREF            0                       # Time in different power states (Tick)
system.mem_ctrl.dram.rank0.pwrStateTime::PRE_PDN            0                       # Time in different power states (Tick)
system.mem_ctrl.dram.rank0.pwrStateTime::ACT   1239844000                       # Time in different power states (Tick)
system.mem_ctrl.dram.rank0.pwrStateTime::ACT_PDN            0                       # Time in different power states (Tick)
system.mem_ctrl.dram.rank1.actEnergy          7596960                       # Energy for activate commands per rank (pJ) (Joule)
system.mem_ctrl.dram.rank1.preEnergy          4026495                       # Energy for precharge commands per rank (pJ) (Joule)
system.mem_ctrl.dram.rank1.readEnergy        25946760                       # Energy for read commands per rank (pJ) (Joule)
system.mem_ctrl.dram.rank1.writeEnergy        2771820                       # Energy for write commands per rank (pJ) (Joule)
system.mem_ctrl.dram.rank1.refreshEnergy 165338160.000000                       # Energy for refresh commands per rank (pJ) (Joule)
system.mem_ctrl.dram.rank1.actBackEnergy    543761760                       # Energy for active background per rank (pJ) (Joule)
system.mem_ctrl.dram.rank1.preBackEnergy    347187840                       # Energy for precharge background per rank (pJ) (Joule)
system.mem_ctrl.dram.rank1.actPowerDownEnergy            0                       # Energy for active power-down per rank (pJ) (Joule)
system.mem_ctrl.dram.rank1.prePowerDownEnergy            0                       # Energy for precharge power-down per rank (pJ) (Joule)
system.mem_ctrl.dram.rank1.selfRefreshEnergy            0                       # Energy for self refresh per rank (pJ) (Joule)
system.mem_ctrl.dram.rank1.totalEnergy     1096629795                       # Total energy per rank (pJ) (Joule)
system.mem_ctrl.dram.rank1.averagePower    523.052757                       # Core power per rank (mW) (Watt)
system.mem_ctrl.dram.rank1.totalIdleTime            0                       # Total Idle time Per DRAM Rank (Tick)
system.mem_ctrl.dram.rank1.pwrStateTime::IDLE    897491250                       # Time in different power states (Tick)
system.mem_ctrl.dram.rank1.pwrStateTime::REF     69940000                       # Time in different power states (Tick)
system.mem_ctrl.dram.rank1.pwrStateTime::SREF            0                       # Time in different power states (Tick)
system.mem_ctrl.dram.rank1.pwrStateTime::PRE_PDN            0                       # Time in different power states (Tick)
system.mem_ctrl.dram.rank1.pwrStateTime::ACT   1129163750                       # Time in different power states (Tick)
system.mem_ctrl.dram.rank1.pwrStateTime::ACT_PDN            0                       # Time in different power states (Tick)
system.mem_ctrl.power_state.pwrStateResidencyTicks::UNDEFINED   2096595000                       # Cumulative time (in ticks) in various power states (Tick)
system.workload.inst.arm                            0                       # number of arm instructions executed (Count)
system.workload.inst.quiesce                        0                       # number of quiesce instructions executed (Count)

---------- End Simulation Statistics   ----------
