
---------- Begin Simulation Statistics ----------
simSeconds                                   0.013121                       # Number of seconds simulated (Second)
simTicks                                  13120672000                       # Number of ticks simulated (Tick)
finalTick                                 13120672000                       # Number of ticks from beginning of simulation (restored from checkpoints and never reset) (Tick)
simFreq                                  1000000000000                       # The number of ticks per simulated second ((Tick/Second))
hostSeconds                                     12.99                       # Real time elapsed on the host (Second)
hostTickRate                               1010329502                       # The number of ticks simulated per host second (ticks/s) ((Tick/Second))
hostMemory                                     787684                       # Number of bytes of host memory used (Byte)
simInsts                                      3379540                       # Number of instructions simulated (Count)
simOps                                        6650100                       # Number of ops (including micro ops) simulated (Count)
hostInstRate                                   260231                       # Simulator instruction rate (inst/s) ((Count/Second))
hostOpRate                                     512070                       # Simulator op (including micro ops) rate (op/s) ((Count/Second))
system.caches.m_outstandReqHistSeqr::bucket_size            1                       (Unspecified)
system.caches.m_outstandReqHistSeqr::max_bucket            9                       (Unspecified)
system.caches.m_outstandReqHistSeqr::samples      6258023                       (Unspecified)
system.caches.m_outstandReqHistSeqr::mean     1.000051                       (Unspecified)
system.caches.m_outstandReqHistSeqr::gmean     1.000035                       (Unspecified)
system.caches.m_outstandReqHistSeqr::stdev     0.007151                       (Unspecified)
system.caches.m_outstandReqHistSeqr      |           0      0.00%      0.00% |     6257703     99.99%     99.99% |         320      0.01%    100.00% |           0      0.00%    100.00% |           0      0.00%    100.00% |           0      0.00%    100.00% |           0      0.00%    100.00% |           0      0.00%    100.00% |           0      0.00%    100.00% |           0      0.00%    100.00% (Unspecified)
system.caches.m_outstandReqHistSeqr::total      6258023                       (Unspecified)
system.caches.m_latencyHistSeqr::bucket_size           64                       (Unspecified)
system.caches.m_latencyHistSeqr::max_bucket          639                       (Unspecified)
system.caches.m_latencyHistSeqr::samples      6258023                       (Unspecified)
system.caches.m_latencyHistSeqr::mean        1.096701                       (Unspecified)
system.caches.m_latencyHistSeqr::gmean       1.005633                       (Unspecified)
system.caches.m_latencyHistSeqr::stdev       2.891782                       (Unspecified)
system.caches.m_latencyHistSeqr          |     6254484     99.94%     99.94% |        3294      0.05%    100.00% |         114      0.00%    100.00% |          37      0.00%    100.00% |          66      0.00%    100.00% |          28      0.00%    100.00% |           0      0.00%    100.00% |           0      0.00%    100.00% |           0      0.00%    100.00% |           0      0.00%    100.00% (Unspecified)
system.caches.m_latencyHistSeqr::total        6258023                       (Unspecified)
system.caches.m_hitLatencyHistSeqr::bucket_size            1                       (Unspecified)
system.caches.m_hitLatencyHistSeqr::max_bucket            9                       (Unspecified)
system.caches.m_hitLatencyHistSeqr::samples      6249777                       (Unspecified)
system.caches.m_hitLatencyHistSeqr::mean            1                       (Unspecified)
system.caches.m_hitLatencyHistSeqr::gmean            1                       (Unspecified)
system.caches.m_hitLatencyHistSeqr       |           0      0.00%      0.00% |     6249777    100.00%    100.00% |           0      0.00%    100.00% |           0      0.00%    100.00% |           0      0.00%    100.00% |           0      0.00%    100.00% |           0      0.00%    100.00% |           0      0.00%    100.00% |           0      0.00%    100.00% |           0      0.00%    100.00% (Unspecified)
system.caches.m_hitLatencyHistSeqr::total      6249777                       (Unspecified)
system.caches.m_missLatencyHistSeqr::bucket_size           64                       (Unspecified)
system.caches.m_missLatencyHistSeqr::max_bucket          639                       (Unspecified)
system.caches.m_missLatencyHistSeqr::samples         8246                       (Unspecified)
system.caches.m_missLatencyHistSeqr::mean    74.388188                       (Unspecified)
system.caches.m_missLatencyHistSeqr::gmean    71.023301                       (Unspecified)
system.caches.m_missLatencyHistSeqr::stdev    31.108680                       (Unspecified)
system.caches.m_missLatencyHistSeqr      |        4707     57.08%     57.08% |        3294     39.95%     97.03% |         114      1.38%     98.41% |          37      0.45%     98.86% |          66      0.80%     99.66% |          28      0.34%    100.00% |           0      0.00%    100.00% |           0      0.00%    100.00% |           0      0.00%    100.00% |           0      0.00%    100.00% (Unspecified)
system.caches.m_missLatencyHistSeqr::total         8246                       (Unspecified)
system.caches.L1Cache_Controller.Load    |     5618894    100.00%    100.00% |           0      0.00%    100.00% |           0      0.00%    100.00% |           0      0.00%    100.00% (Unspecified)
system.caches.L1Cache_Controller.Load::total      5618894                       (Unspecified)
system.caches.L1Cache_Controller.Store   |      639129    100.00%    100.00% |           0      0.00%    100.00% |           0      0.00%    100.00% |           0      0.00%    100.00% (Unspecified)
system.caches.L1Cache_Controller.Store::total       639129                       (Unspecified)
system.caches.L1Cache_Controller.Replacement |     2516271    100.00%    100.00% |           0      0.00%    100.00% |           0      0.00%    100.00% |           0      0.00%    100.00% (Unspecified)
system.caches.L1Cache_Controller.Replacement::total      2516271                       (Unspecified)
system.caches.L1Cache_Controller.PutAck  |        7864    100.00%    100.00% |           0      0.00%    100.00% |           0      0.00%    100.00% |           0      0.00%    100.00% (Unspecified)
system.caches.L1Cache_Controller.PutAck::total         7864                       (Unspecified)
system.caches.L1Cache_Controller.DataDirNoAcks |        8246    100.00%    100.00% |           0      0.00%    100.00% |           0      0.00%    100.00% |           0      0.00%    100.00% (Unspecified)
system.caches.L1Cache_Controller.DataDirNoAcks::total         8246                       (Unspecified)
system.caches.L1Cache_Controller.I.Load  |        7060    100.00%    100.00% |           0      0.00%    100.00% |           0      0.00%    100.00% |           0      0.00%    100.00% (Unspecified)
system.caches.L1Cache_Controller.I.Load::total         7060                       (Unspecified)
system.caches.L1Cache_Controller.I.Store |        1060    100.00%    100.00% |           0      0.00%    100.00% |           0      0.00%    100.00% |           0      0.00%    100.00% (Unspecified)
system.caches.L1Cache_Controller.I.Store::total         1060                       (Unspecified)
system.caches.L1Cache_Controller.IS_D.DataDirNoAcks |        7060    100.00%    100.00% |           0      0.00%    100.00% |           0      0.00%    100.00% |           0      0.00%    100.00% (Unspecified)
system.caches.L1Cache_Controller.IS_D.DataDirNoAcks::total         7060                       (Unspecified)
system.caches.L1Cache_Controller.IM_AD.DataDirNoAcks |        1060    100.00%    100.00% |           0      0.00%    100.00% |           0      0.00%    100.00% |           0      0.00%    100.00% (Unspecified)
system.caches.L1Cache_Controller.IM_AD.DataDirNoAcks::total         1060                       (Unspecified)
system.caches.L1Cache_Controller.S.Load  |     5015722    100.00%    100.00% |           0      0.00%    100.00% |           0      0.00%    100.00% |           0      0.00%    100.00% (Unspecified)
system.caches.L1Cache_Controller.S.Load::total      5015722                       (Unspecified)
system.caches.L1Cache_Controller.S.Store |         126    100.00%    100.00% |           0      0.00%    100.00% |           0      0.00%    100.00% |           0      0.00%    100.00% (Unspecified)
system.caches.L1Cache_Controller.S.Store::total          126                       (Unspecified)
system.caches.L1Cache_Controller.S.Replacement |        6746    100.00%    100.00% |           0      0.00%    100.00% |           0      0.00%    100.00% |           0      0.00%    100.00% (Unspecified)
system.caches.L1Cache_Controller.S.Replacement::total         6746                       (Unspecified)
system.caches.L1Cache_Controller.SM_AD.DataDirNoAcks |         126    100.00%    100.00% |           0      0.00%    100.00% |           0      0.00%    100.00% |           0      0.00%    100.00% (Unspecified)
system.caches.L1Cache_Controller.SM_AD.DataDirNoAcks::total          126                       (Unspecified)
system.caches.L1Cache_Controller.M.Load  |      596112    100.00%    100.00% |           0      0.00%    100.00% |           0      0.00%    100.00% |           0      0.00%    100.00% (Unspecified)
system.caches.L1Cache_Controller.M.Load::total       596112                       (Unspecified)
system.caches.L1Cache_Controller.M.Store |      637943    100.00%    100.00% |           0      0.00%    100.00% |           0      0.00%    100.00% |           0      0.00%    100.00% (Unspecified)
system.caches.L1Cache_Controller.M.Store::total       637943                       (Unspecified)
system.caches.L1Cache_Controller.M.Replacement |        1118    100.00%    100.00% |           0      0.00%    100.00% |           0      0.00%    100.00% |           0      0.00%    100.00% (Unspecified)
system.caches.L1Cache_Controller.M.Replacement::total         1118                       (Unspecified)
system.caches.L1Cache_Controller.MI_A.Replacement |      356533    100.00%    100.00% |           0      0.00%    100.00% |           0      0.00%    100.00% |           0      0.00%    100.00% (Unspecified)
system.caches.L1Cache_Controller.MI_A.Replacement::total       356533                       (Unspecified)
system.caches.L1Cache_Controller.MI_A.PutAck |        1118    100.00%    100.00% |           0      0.00%    100.00% |           0      0.00%    100.00% |           0      0.00%    100.00% (Unspecified)
system.caches.L1Cache_Controller.MI_A.PutAck::total         1118                       (Unspecified)
system.caches.L1Cache_Controller.SI_A.Replacement |     2151874    100.00%    100.00% |           0      0.00%    100.00% |           0      0.00%    100.00% |           0      0.00%    100.00% (Unspecified)
system.caches.L1Cache_Controller.SI_A.Replacement::total      2151874                       (Unspecified)
system.caches.L1Cache_Controller.SI_A.PutAck |        6746    100.00%    100.00% |           0      0.00%    100.00% |           0      0.00%    100.00% |           0      0.00%    100.00% (Unspecified)
system.caches.L1Cache_Controller.SI_A.PutAck::total         6746                       (Unspecified)
system.caches.Directory_Controller.GetS          7060      0.00%      0.00% (Unspecified)
system.caches.Directory_Controller.GetM          1186      0.00%      0.00% (Unspecified)
system.caches.Directory_Controller.PutSLast         6746      0.00%      0.00% (Unspecified)
system.caches.Directory_Controller.PutMOwner         1118      0.00%      0.00% (Unspecified)
system.caches.Directory_Controller.MemData         8246      0.00%      0.00% (Unspecified)
system.caches.Directory_Controller.MemAck         1118      0.00%      0.00% (Unspecified)
system.caches.Directory_Controller.I.GetS         7060      0.00%      0.00% (Unspecified)
system.caches.Directory_Controller.I.GetM         1060      0.00%      0.00% (Unspecified)
system.caches.Directory_Controller.S.GetM          126      0.00%      0.00% (Unspecified)
system.caches.Directory_Controller.S.PutSLast         6746      0.00%      0.00% (Unspecified)
system.caches.Directory_Controller.M.PutMOwner         1118      0.00%      0.00% (Unspecified)
system.caches.Directory_Controller.S_m.MemData         7060      0.00%      0.00% (Unspecified)
system.caches.Directory_Controller.M_m.MemData         1186      0.00%      0.00% (Unspecified)
system.caches.Directory_Controller.MI_m.MemAck         1118      0.00%      0.00% (Unspecified)
system.caches.MachineType.Directory.miss_mach_latency_hist_seqr::bucket_size           64                       (Unspecified)
system.caches.MachineType.Directory.miss_mach_latency_hist_seqr::max_bucket          639                       (Unspecified)
system.caches.MachineType.Directory.miss_mach_latency_hist_seqr::samples         8246                       (Unspecified)
system.caches.MachineType.Directory.miss_mach_latency_hist_seqr::mean    74.388188                       (Unspecified)
system.caches.MachineType.Directory.miss_mach_latency_hist_seqr::gmean    71.023301                       (Unspecified)
system.caches.MachineType.Directory.miss_mach_latency_hist_seqr::stdev    31.108680                       (Unspecified)
system.caches.MachineType.Directory.miss_mach_latency_hist_seqr |        4707     57.08%     57.08% |        3294     39.95%     97.03% |         114      1.38%     98.41% |          37      0.45%     98.86% |          66      0.80%     99.66% |          28      0.34%    100.00% |           0      0.00%    100.00% |           0      0.00%    100.00% |           0      0.00%    100.00% |           0      0.00%    100.00% (Unspecified)
system.caches.MachineType.Directory.miss_mach_latency_hist_seqr::total         8246                       (Unspecified)
system.caches.MachineType.Directory.miss_latency_hist_seqr.issue_to_initial_request::bucket_size            1                       (Unspecified)
system.caches.MachineType.Directory.miss_latency_hist_seqr.issue_to_initial_request::max_bucket            9                       (Unspecified)
system.caches.MachineType.Directory.miss_latency_hist_seqr.issue_to_initial_request::samples            1                       (Unspecified)
system.caches.MachineType.Directory.miss_latency_hist_seqr.issue_to_initial_request::stdev          nan                       (Unspecified)
system.caches.MachineType.Directory.miss_latency_hist_seqr.issue_to_initial_request |           1    100.00%    100.00% |           0      0.00%    100.00% |           0      0.00%    100.00% |           0      0.00%    100.00% |           0      0.00%    100.00% |           0      0.00%    100.00% |           0      0.00%    100.00% |           0      0.00%    100.00% |           0      0.00%    100.00% |           0      0.00%    100.00% (Unspecified)
system.caches.MachineType.Directory.miss_latency_hist_seqr.issue_to_initial_request::total            1                       (Unspecified)
system.caches.MachineType.Directory.miss_latency_hist_seqr.initial_to_forward::bucket_size            1                       (Unspecified)
system.caches.MachineType.Directory.miss_latency_hist_seqr.initial_to_forward::max_bucket            9                       (Unspecified)
system.caches.MachineType.Directory.miss_latency_hist_seqr.initial_to_forward::samples            1                       (Unspecified)
system.caches.MachineType.Directory.miss_latency_hist_seqr.initial_to_forward::stdev          nan                       (Unspecified)
system.caches.MachineType.Directory.miss_latency_hist_seqr.initial_to_forward |           1    100.00%    100.00% |           0      0.00%    100.00% |           0      0.00%    100.00% |           0      0.00%    100.00% |           0      0.00%    100.00% |           0      0.00%    100.00% |           0      0.00%    100.00% |           0      0.00%    100.00% |           0      0.00%    100.00% |           0      0.00%    100.00% (Unspecified)
system.caches.MachineType.Directory.miss_latency_hist_seqr.initial_to_forward::total            1                       (Unspecified)
system.caches.MachineType.Directory.miss_latency_hist_seqr.forward_to_first_response::bucket_size            1                       (Unspecified)
system.caches.MachineType.Directory.miss_latency_hist_seqr.forward_to_first_response::max_bucket            9                       (Unspecified)
system.caches.MachineType.Directory.miss_latency_hist_seqr.forward_to_first_response::samples            1                       (Unspecified)
system.caches.MachineType.Directory.miss_latency_hist_seqr.forward_to_first_response::stdev          nan                       (Unspecified)
system.caches.MachineType.Directory.miss_latency_hist_seqr.forward_to_first_response |           1    100.00%    100.00% |           0      0.00%    100.00% |           0      0.00%    100.00% |           0      0.00%    100.00% |           0      0.00%    100.00% |           0      0.00%    100.00% |           0      0.00%    100.00% |           0      0.00%    100.00% |           0      0.00%    100.00% |           0      0.00%    100.00% (Unspecified)
system.caches.MachineType.Directory.miss_latency_hist_seqr.forward_to_first_response::total            1                       (Unspecified)
system.caches.MachineType.Directory.miss_latency_hist_seqr.first_response_to_completion::bucket_size            8                       (Unspecified)
system.caches.MachineType.Directory.miss_latency_hist_seqr.first_response_to_completion::max_bucket           79                       (Unspecified)
system.caches.MachineType.Directory.miss_latency_hist_seqr.first_response_to_completion::samples            1                       (Unspecified)
system.caches.MachineType.Directory.miss_latency_hist_seqr.first_response_to_completion::mean           73                       (Unspecified)
system.caches.MachineType.Directory.miss_latency_hist_seqr.first_response_to_completion::gmean    73.000000                       (Unspecified)
system.caches.MachineType.Directory.miss_latency_hist_seqr.first_response_to_completion::stdev          nan                       (Unspecified)
system.caches.MachineType.Directory.miss_latency_hist_seqr.first_response_to_completion |           0      0.00%      0.00% |           0      0.00%      0.00% |           0      0.00%      0.00% |           0      0.00%      0.00% |           0      0.00%      0.00% |           0      0.00%      0.00% |           0      0.00%      0.00% |           0      0.00%      0.00% |           0      0.00%      0.00% |           1    100.00%    100.00% (Unspecified)
system.caches.MachineType.Directory.miss_latency_hist_seqr.first_response_to_completion::total            1                       (Unspecified)
system.caches.MachineType.Directory.incomplete_times_seqr         8245                       (Unspecified)
system.caches.RequestType.LD.latency_hist_seqr::bucket_size           64                       (Unspecified)
system.caches.RequestType.LD.latency_hist_seqr::max_bucket          639                       (Unspecified)
system.caches.RequestType.LD.latency_hist_seqr::samples       838562                       (Unspecified)
system.caches.RequestType.LD.latency_hist_seqr::mean     1.258284                       (Unspecified)
system.caches.RequestType.LD.latency_hist_seqr::gmean     1.015750                       (Unspecified)
system.caches.RequestType.LD.latency_hist_seqr::stdev     4.648672                       (Unspecified)
system.caches.RequestType.LD.latency_hist_seqr |      837686     99.90%     99.90% |         784      0.09%     99.99% |          39      0.00%     99.99% |          17      0.00%    100.00% |          22      0.00%    100.00% |          14      0.00%    100.00% |           0      0.00%    100.00% |           0      0.00%    100.00% |           0      0.00%    100.00% |           0      0.00%    100.00% (Unspecified)
system.caches.RequestType.LD.latency_hist_seqr::total       838562                       (Unspecified)
system.caches.RequestType.LD.hit_latency_hist_seqr::bucket_size            1                       (Unspecified)
system.caches.RequestType.LD.hit_latency_hist_seqr::max_bucket            9                       (Unspecified)
system.caches.RequestType.LD.hit_latency_hist_seqr::samples       835450                       (Unspecified)
system.caches.RequestType.LD.hit_latency_hist_seqr::mean            1                       (Unspecified)
system.caches.RequestType.LD.hit_latency_hist_seqr::gmean            1                       (Unspecified)
system.caches.RequestType.LD.hit_latency_hist_seqr |           0      0.00%      0.00% |      835450    100.00%    100.00% |           0      0.00%    100.00% |           0      0.00%    100.00% |           0      0.00%    100.00% |           0      0.00%    100.00% |           0      0.00%    100.00% |           0      0.00%    100.00% |           0      0.00%    100.00% |           0      0.00%    100.00% (Unspecified)
system.caches.RequestType.LD.hit_latency_hist_seqr::total       835450                       (Unspecified)
system.caches.RequestType.LD.miss_latency_hist_seqr::bucket_size           64                       (Unspecified)
system.caches.RequestType.LD.miss_latency_hist_seqr::max_bucket          639                       (Unspecified)
system.caches.RequestType.LD.miss_latency_hist_seqr::samples         3112                       (Unspecified)
system.caches.RequestType.LD.miss_latency_hist_seqr::mean    70.597365                       (Unspecified)
system.caches.RequestType.LD.miss_latency_hist_seqr::gmean    67.414546                       (Unspecified)
system.caches.RequestType.LD.miss_latency_hist_seqr::stdev    31.584577                       (Unspecified)
system.caches.RequestType.LD.miss_latency_hist_seqr |        2236     71.85%     71.85% |         784     25.19%     97.04% |          39      1.25%     98.30% |          17      0.55%     98.84% |          22      0.71%     99.55% |          14      0.45%    100.00% |           0      0.00%    100.00% |           0      0.00%    100.00% |           0      0.00%    100.00% |           0      0.00%    100.00% (Unspecified)
system.caches.RequestType.LD.miss_latency_hist_seqr::total         3112                       (Unspecified)
system.caches.RequestType.ST.latency_hist_seqr::bucket_size           64                       (Unspecified)
system.caches.RequestType.ST.latency_hist_seqr::max_bucket          639                       (Unspecified)
system.caches.RequestType.ST.latency_hist_seqr::samples       589733                       (Unspecified)
system.caches.RequestType.ST.latency_hist_seqr::mean     1.132068                       (Unspecified)
system.caches.RequestType.ST.latency_hist_seqr::gmean     1.008147                       (Unspecified)
system.caches.RequestType.ST.latency_hist_seqr::stdev     3.214632                       (Unspecified)
system.caches.RequestType.ST.latency_hist_seqr |      589239     99.92%     99.92% |         464      0.08%     99.99% |          17      0.00%    100.00% |           6      0.00%    100.00% |           5      0.00%    100.00% |           2      0.00%    100.00% |           0      0.00%    100.00% |           0      0.00%    100.00% |           0      0.00%    100.00% |           0      0.00%    100.00% (Unspecified)
system.caches.RequestType.ST.latency_hist_seqr::total       589733                       (Unspecified)
system.caches.RequestType.ST.hit_latency_hist_seqr::bucket_size            1                       (Unspecified)
system.caches.RequestType.ST.hit_latency_hist_seqr::max_bucket            9                       (Unspecified)
system.caches.RequestType.ST.hit_latency_hist_seqr::samples       588592                       (Unspecified)
system.caches.RequestType.ST.hit_latency_hist_seqr::mean            1                       (Unspecified)
system.caches.RequestType.ST.hit_latency_hist_seqr::gmean            1                       (Unspecified)
system.caches.RequestType.ST.hit_latency_hist_seqr |           0      0.00%      0.00% |      588592    100.00%    100.00% |           0      0.00%    100.00% |           0      0.00%    100.00% |           0      0.00%    100.00% |           0      0.00%    100.00% |           0      0.00%    100.00% |           0      0.00%    100.00% |           0      0.00%    100.00% |           0      0.00%    100.00% (Unspecified)
system.caches.RequestType.ST.hit_latency_hist_seqr::total       588592                       (Unspecified)
system.caches.RequestType.ST.miss_latency_hist_seqr::bucket_size           64                       (Unspecified)
system.caches.RequestType.ST.miss_latency_hist_seqr::max_bucket          639                       (Unspecified)
system.caches.RequestType.ST.miss_latency_hist_seqr::samples         1141                       (Unspecified)
system.caches.RequestType.ST.miss_latency_hist_seqr::mean    69.260298                       (Unspecified)
system.caches.RequestType.ST.miss_latency_hist_seqr::gmean    66.281705                       (Unspecified)
system.caches.RequestType.ST.miss_latency_hist_seqr::stdev    26.291879                       (Unspecified)
system.caches.RequestType.ST.miss_latency_hist_seqr |         647     56.70%     56.70% |         464     40.67%     97.37% |          17      1.49%     98.86% |           6      0.53%     99.39% |           5      0.44%     99.82% |           2      0.18%    100.00% |           0      0.00%    100.00% |           0      0.00%    100.00% |           0      0.00%    100.00% |           0      0.00%    100.00% (Unspecified)
system.caches.RequestType.ST.miss_latency_hist_seqr::total         1141                       (Unspecified)
system.caches.RequestType.IFETCH.latency_hist_seqr::bucket_size           64                       (Unspecified)
system.caches.RequestType.IFETCH.latency_hist_seqr::max_bucket          639                       (Unspecified)
system.caches.RequestType.IFETCH.latency_hist_seqr::samples      4780332                       (Unspecified)
system.caches.RequestType.IFETCH.latency_hist_seqr::mean     1.064471                       (Unspecified)
system.caches.RequestType.IFETCH.latency_hist_seqr::gmean     1.003580                       (Unspecified)
system.caches.RequestType.IFETCH.latency_hist_seqr::stdev     2.417693                       (Unspecified)
system.caches.RequestType.IFETCH.latency_hist_seqr |     4778173     99.95%     99.95% |        2036      0.04%    100.00% |          58      0.00%    100.00% |          14      0.00%    100.00% |          39      0.00%    100.00% |          12      0.00%    100.00% |           0      0.00%    100.00% |           0      0.00%    100.00% |           0      0.00%    100.00% |           0      0.00%    100.00% (Unspecified)
system.caches.RequestType.IFETCH.latency_hist_seqr::total      4780332                       (Unspecified)
system.caches.RequestType.IFETCH.hit_latency_hist_seqr::bucket_size            1                       (Unspecified)
system.caches.RequestType.IFETCH.hit_latency_hist_seqr::max_bucket            9                       (Unspecified)
system.caches.RequestType.IFETCH.hit_latency_hist_seqr::samples      4776384                       (Unspecified)
system.caches.RequestType.IFETCH.hit_latency_hist_seqr::mean            1                       (Unspecified)
system.caches.RequestType.IFETCH.hit_latency_hist_seqr::gmean            1                       (Unspecified)
system.caches.RequestType.IFETCH.hit_latency_hist_seqr |           0      0.00%      0.00% |     4776384    100.00%    100.00% |           0      0.00%    100.00% |           0      0.00%    100.00% |           0      0.00%    100.00% |           0      0.00%    100.00% |           0      0.00%    100.00% |           0      0.00%    100.00% |           0      0.00%    100.00% |           0      0.00%    100.00% (Unspecified)
system.caches.RequestType.IFETCH.hit_latency_hist_seqr::total      4776384                       (Unspecified)
system.caches.RequestType.IFETCH.miss_latency_hist_seqr::bucket_size           64                       (Unspecified)
system.caches.RequestType.IFETCH.miss_latency_hist_seqr::max_bucket          639                       (Unspecified)
system.caches.RequestType.IFETCH.miss_latency_hist_seqr::samples         3948                       (Unspecified)
system.caches.RequestType.IFETCH.miss_latency_hist_seqr::mean    79.063323                       (Unspecified)
system.caches.RequestType.IFETCH.miss_latency_hist_seqr::gmean    75.726117                       (Unspecified)
system.caches.RequestType.IFETCH.miss_latency_hist_seqr::stdev    31.447618                       (Unspecified)
system.caches.RequestType.IFETCH.miss_latency_hist_seqr |        1789     45.31%     45.31% |        2036     51.57%     96.88% |          58      1.47%     98.35% |          14      0.35%     98.71% |          39      0.99%     99.70% |          12      0.30%    100.00% |           0      0.00%    100.00% |           0      0.00%    100.00% |           0      0.00%    100.00% |           0      0.00%    100.00% (Unspecified)
system.caches.RequestType.IFETCH.miss_latency_hist_seqr::total         3948                       (Unspecified)
system.caches.RequestType.RMW_Read.latency_hist_seqr::bucket_size           16                       (Unspecified)
system.caches.RequestType.RMW_Read.latency_hist_seqr::max_bucket          159                       (Unspecified)
system.caches.RequestType.RMW_Read.latency_hist_seqr::samples        49396                       (Unspecified)
system.caches.RequestType.RMW_Read.latency_hist_seqr::mean     1.050470                       (Unspecified)
system.caches.RequestType.RMW_Read.latency_hist_seqr::gmean     1.003647                       (Unspecified)
system.caches.RequestType.RMW_Read.latency_hist_seqr::stdev     1.722676                       (Unspecified)
system.caches.RequestType.RMW_Read.latency_hist_seqr |       49351     99.91%     99.91% |           2      0.00%     99.91% |           4      0.01%     99.92% |          29      0.06%     99.98% |           7      0.01%     99.99% |           3      0.01%    100.00% |           0      0.00%    100.00% |           0      0.00%    100.00% |           0      0.00%    100.00% |           0      0.00%    100.00% (Unspecified)
system.caches.RequestType.RMW_Read.latency_hist_seqr::total        49396                       (Unspecified)
system.caches.RequestType.RMW_Read.hit_latency_hist_seqr::bucket_size            1                       (Unspecified)
system.caches.RequestType.RMW_Read.hit_latency_hist_seqr::max_bucket            9                       (Unspecified)
system.caches.RequestType.RMW_Read.hit_latency_hist_seqr::samples        49351                       (Unspecified)
system.caches.RequestType.RMW_Read.hit_latency_hist_seqr::mean            1                       (Unspecified)
system.caches.RequestType.RMW_Read.hit_latency_hist_seqr::gmean            1                       (Unspecified)
system.caches.RequestType.RMW_Read.hit_latency_hist_seqr |           0      0.00%      0.00% |       49351    100.00%    100.00% |           0      0.00%    100.00% |           0      0.00%    100.00% |           0      0.00%    100.00% |           0      0.00%    100.00% |           0      0.00%    100.00% |           0      0.00%    100.00% |           0      0.00%    100.00% |           0      0.00%    100.00% (Unspecified)
system.caches.RequestType.RMW_Read.hit_latency_hist_seqr::total        49351                       (Unspecified)
system.caches.RequestType.RMW_Read.miss_latency_hist_seqr::bucket_size           16                       (Unspecified)
system.caches.RequestType.RMW_Read.miss_latency_hist_seqr::max_bucket          159                       (Unspecified)
system.caches.RequestType.RMW_Read.miss_latency_hist_seqr::samples           45                       (Unspecified)
system.caches.RequestType.RMW_Read.miss_latency_hist_seqr::mean    56.400000                       (Unspecified)
system.caches.RequestType.RMW_Read.miss_latency_hist_seqr::gmean    54.389110                       (Unspecified)
system.caches.RequestType.RMW_Read.miss_latency_hist_seqr::stdev    13.979530                       (Unspecified)
system.caches.RequestType.RMW_Read.miss_latency_hist_seqr |           0      0.00%      0.00% |           2      4.44%      4.44% |           4      8.89%     13.33% |          29     64.44%     77.78% |           7     15.56%     93.33% |           3      6.67%    100.00% |           0      0.00%    100.00% |           0      0.00%    100.00% |           0      0.00%    100.00% |           0      0.00%    100.00% (Unspecified)
system.caches.RequestType.RMW_Read.miss_latency_hist_seqr::total           45                       (Unspecified)
system.caches.RequestTypeMachineType.LD.Directory.miss_type_mach_latency_hist_seqr::bucket_size           64                       (Unspecified)
system.caches.RequestTypeMachineType.LD.Directory.miss_type_mach_latency_hist_seqr::max_bucket          639                       (Unspecified)
system.caches.RequestTypeMachineType.LD.Directory.miss_type_mach_latency_hist_seqr::samples         3112                       (Unspecified)
system.caches.RequestTypeMachineType.LD.Directory.miss_type_mach_latency_hist_seqr::mean    70.597365                       (Unspecified)
system.caches.RequestTypeMachineType.LD.Directory.miss_type_mach_latency_hist_seqr::gmean    67.414546                       (Unspecified)
system.caches.RequestTypeMachineType.LD.Directory.miss_type_mach_latency_hist_seqr::stdev    31.584577                       (Unspecified)
system.caches.RequestTypeMachineType.LD.Directory.miss_type_mach_latency_hist_seqr |        2236     71.85%     71.85% |         784     25.19%     97.04% |          39      1.25%     98.30% |          17      0.55%     98.84% |          22      0.71%     99.55% |          14      0.45%    100.00% |           0      0.00%    100.00% |           0      0.00%    100.00% |           0      0.00%    100.00% |           0      0.00%    100.00% (Unspecified)
system.caches.RequestTypeMachineType.LD.Directory.miss_type_mach_latency_hist_seqr::total         3112                       (Unspecified)
system.caches.RequestTypeMachineType.ST.Directory.miss_type_mach_latency_hist_seqr::bucket_size           64                       (Unspecified)
system.caches.RequestTypeMachineType.ST.Directory.miss_type_mach_latency_hist_seqr::max_bucket          639                       (Unspecified)
system.caches.RequestTypeMachineType.ST.Directory.miss_type_mach_latency_hist_seqr::samples         1141                       (Unspecified)
system.caches.RequestTypeMachineType.ST.Directory.miss_type_mach_latency_hist_seqr::mean    69.260298                       (Unspecified)
system.caches.RequestTypeMachineType.ST.Directory.miss_type_mach_latency_hist_seqr::gmean    66.281705                       (Unspecified)
system.caches.RequestTypeMachineType.ST.Directory.miss_type_mach_latency_hist_seqr::stdev    26.291879                       (Unspecified)
system.caches.RequestTypeMachineType.ST.Directory.miss_type_mach_latency_hist_seqr |         647     56.70%     56.70% |         464     40.67%     97.37% |          17      1.49%     98.86% |           6      0.53%     99.39% |           5      0.44%     99.82% |           2      0.18%    100.00% |           0      0.00%    100.00% |           0      0.00%    100.00% |           0      0.00%    100.00% |           0      0.00%    100.00% (Unspecified)
system.caches.RequestTypeMachineType.ST.Directory.miss_type_mach_latency_hist_seqr::total         1141                       (Unspecified)
system.caches.RequestTypeMachineType.IFETCH.Directory.miss_type_mach_latency_hist_seqr::bucket_size           64                       (Unspecified)
system.caches.RequestTypeMachineType.IFETCH.Directory.miss_type_mach_latency_hist_seqr::max_bucket          639                       (Unspecified)
system.caches.RequestTypeMachineType.IFETCH.Directory.miss_type_mach_latency_hist_seqr::samples         3948                       (Unspecified)
system.caches.RequestTypeMachineType.IFETCH.Directory.miss_type_mach_latency_hist_seqr::mean    79.063323                       (Unspecified)
system.caches.RequestTypeMachineType.IFETCH.Directory.miss_type_mach_latency_hist_seqr::gmean    75.726117                       (Unspecified)
system.caches.RequestTypeMachineType.IFETCH.Directory.miss_type_mach_latency_hist_seqr::stdev    31.447618                       (Unspecified)
system.caches.RequestTypeMachineType.IFETCH.Directory.miss_type_mach_latency_hist_seqr |        1789     45.31%     45.31% |        2036     51.57%     96.88% |          58      1.47%     98.35% |          14      0.35%     98.71% |          39      0.99%     99.70% |          12      0.30%    100.00% |           0      0.00%    100.00% |           0      0.00%    100.00% |           0      0.00%    100.00% |           0      0.00%    100.00% (Unspecified)
system.caches.RequestTypeMachineType.IFETCH.Directory.miss_type_mach_latency_hist_seqr::total         3948                       (Unspecified)
system.caches.RequestTypeMachineType.RMW_Read.Directory.miss_type_mach_latency_hist_seqr::bucket_size           16                       (Unspecified)
system.caches.RequestTypeMachineType.RMW_Read.Directory.miss_type_mach_latency_hist_seqr::max_bucket          159                       (Unspecified)
system.caches.RequestTypeMachineType.RMW_Read.Directory.miss_type_mach_latency_hist_seqr::samples           45                       (Unspecified)
system.caches.RequestTypeMachineType.RMW_Read.Directory.miss_type_mach_latency_hist_seqr::mean    56.400000                       (Unspecified)
system.caches.RequestTypeMachineType.RMW_Read.Directory.miss_type_mach_latency_hist_seqr::gmean    54.389110                       (Unspecified)
system.caches.RequestTypeMachineType.RMW_Read.Directory.miss_type_mach_latency_hist_seqr::stdev    13.979530                       (Unspecified)
system.caches.RequestTypeMachineType.RMW_Read.Directory.miss_type_mach_latency_hist_seqr |           0      0.00%      0.00% |           2      4.44%      4.44% |           4      8.89%     13.33% |          29     64.44%     77.78% |           7     15.56%     93.33% |           3      6.67%    100.00% |           0      0.00%    100.00% |           0      0.00%    100.00% |           0      0.00%    100.00% |           0      0.00%    100.00% (Unspecified)
system.caches.RequestTypeMachineType.RMW_Read.Directory.miss_type_mach_latency_hist_seqr::total           45                       (Unspecified)
system.caches.controllers0.fullyBusyCycles        78640                       # cycles for which number of transistions == max transitions (Unspecified)
system.caches.controllers0.cacheMemory.m_demand_hits            0                       # Number of cache demand hits (Unspecified)
system.caches.controllers0.cacheMemory.m_demand_misses            0                       # Number of cache demand misses (Unspecified)
system.caches.controllers0.cacheMemory.m_demand_accesses            0                       # Number of cache demand accesses (Unspecified)
system.caches.controllers0.forwardFromDir.m_buf_msgs     0.000599                       # Average number of messages in buffer (Unspecified)
system.caches.controllers0.forwardFromDir.m_stall_time  4993.927521                       # Average number of cycles messages are stalled in this MB (Unspecified)
system.caches.controllers0.mandatoryQueue.m_buf_msgs     0.482953                       # Average number of messages in buffer (Unspecified)
system.caches.controllers0.mandatoryQueue.m_stall_time  1398.250105                       # Average number of cycles messages are stalled in this MB (Unspecified)
system.caches.controllers0.power_state.pwrStateResidencyTicks::UNDEFINED  13120672000                       # Cumulative time (in ticks) in various power states (Tick)
system.caches.controllers0.requestToDir.m_buf_msgs     0.001228                       # Average number of messages in buffer (Unspecified)
system.caches.controllers0.requestToDir.m_stall_time   999.999848                       # Average number of cycles messages are stalled in this MB (Unspecified)
system.caches.controllers0.responseFromDirOrSibling.m_buf_msgs     0.000628                       # Average number of messages in buffer (Unspecified)
system.caches.controllers0.responseFromDirOrSibling.m_stall_time  4999.972181                       # Average number of cycles messages are stalled in this MB (Unspecified)
system.caches.controllers1.cacheMemory.m_demand_hits            0                       # Number of cache demand hits (Unspecified)
system.caches.controllers1.cacheMemory.m_demand_misses            0                       # Number of cache demand misses (Unspecified)
system.caches.controllers1.cacheMemory.m_demand_accesses            0                       # Number of cache demand accesses (Unspecified)
system.caches.controllers1.power_state.pwrStateResidencyTicks::UNDEFINED  13120672000                       # Cumulative time (in ticks) in various power states (Tick)
system.caches.controllers2.cacheMemory.m_demand_hits            0                       # Number of cache demand hits (Unspecified)
system.caches.controllers2.cacheMemory.m_demand_misses            0                       # Number of cache demand misses (Unspecified)
system.caches.controllers2.cacheMemory.m_demand_accesses            0                       # Number of cache demand accesses (Unspecified)
system.caches.controllers2.power_state.pwrStateResidencyTicks::UNDEFINED  13120672000                       # Cumulative time (in ticks) in various power states (Tick)
system.caches.controllers3.cacheMemory.m_demand_hits            0                       # Number of cache demand hits (Unspecified)
system.caches.controllers3.cacheMemory.m_demand_misses            0                       # Number of cache demand misses (Unspecified)
system.caches.controllers3.cacheMemory.m_demand_accesses            0                       # Number of cache demand accesses (Unspecified)
system.caches.controllers3.power_state.pwrStateResidencyTicks::UNDEFINED  13120672000                       # Cumulative time (in ticks) in various power states (Tick)
system.caches.controllers4.forwardToCache.m_buf_msgs     0.000609                       # Average number of messages in buffer (Unspecified)
system.caches.controllers4.forwardToCache.m_stall_time   999.842691                       # Average number of cycles messages are stalled in this MB (Unspecified)
system.caches.controllers4.power_state.pwrStateResidencyTicks::UNDEFINED  13120672000                       # Cumulative time (in ticks) in various power states (Tick)
system.caches.controllers4.requestFromCache.m_buf_msgs     0.001228                       # Average number of messages in buffer (Unspecified)
system.caches.controllers4.requestFromCache.m_stall_time  4999.997714                       # Average number of cycles messages are stalled in this MB (Unspecified)
system.caches.controllers4.requestToMemory.m_buf_msgs     0.000714                       # Average number of messages in buffer (Unspecified)
system.caches.controllers4.requestToMemory.m_stall_time   999.999466                       # Average number of cycles messages are stalled in this MB (Unspecified)
system.caches.controllers4.responseFromMemory.m_buf_msgs     0.000964                       # Average number of messages in buffer (Unspecified)
system.caches.controllers4.responseFromMemory.m_stall_time   999.994817                       # Average number of cycles messages are stalled in this MB (Unspecified)
system.caches.controllers4.responseToCache.m_buf_msgs     0.000628                       # Average number of messages in buffer (Unspecified)
system.caches.controllers4.responseToCache.m_stall_time   999.994741                       # Average number of cycles messages are stalled in this MB (Unspecified)
system.caches.network.msg_count.Control         45712                       (Unspecified)
system.caches.network.msg_byte.Control         365696                       (Unspecified)
system.caches.network.msg_count.Data            18728                       (Unspecified)
system.caches.network.msg_byte.Data           1348416                       (Unspecified)
system.caches.network.int_link_buffers49.m_buf_msgs     0.000599                       # Average number of messages in buffer (Unspecified)
system.caches.network.int_link_buffers49.m_stall_time  2996.356970                       # Average number of cycles messages are stalled in this MB (Unspecified)
system.caches.network.int_link_buffers50.m_buf_msgs     0.000628                       # Average number of messages in buffer (Unspecified)
system.caches.network.int_link_buffers50.m_stall_time  2999.983766                       # Average number of cycles messages are stalled in this MB (Unspecified)
system.caches.network.int_link_buffers9.m_buf_msgs     0.001228                       # Average number of messages in buffer (Unspecified)
system.caches.network.int_link_buffers9.m_stall_time  2999.999085                       # Average number of cycles messages are stalled in this MB (Unspecified)
system.caches.network.power_state.pwrStateResidencyTicks::UNDEFINED  13120672000                       # Cumulative time (in ticks) in various power states (Tick)
system.caches.network.routers0.percent_links_utilized     0.081651                       (Unspecified)
system.caches.network.routers0.msg_count.Control::0        14992                       (Unspecified)
system.caches.network.routers0.msg_count.Control::1         7864                       (Unspecified)
system.caches.network.routers0.msg_bytes.Control::0       119936                       (Unspecified)
system.caches.network.routers0.msg_bytes.Control::1        62912                       (Unspecified)
system.caches.network.routers0.msg_count.Data::0         1118                       (Unspecified)
system.caches.network.routers0.msg_count.Data::2         8246                       (Unspecified)
system.caches.network.routers0.msg_bytes.Data::0        80496                       (Unspecified)
system.caches.network.routers0.msg_bytes.Data::2       593712                       (Unspecified)
system.caches.network.routers0.port_buffers1.m_buf_msgs     0.000599                       # Average number of messages in buffer (Unspecified)
system.caches.network.routers0.port_buffers1.m_stall_time  3995.142322                       # Average number of cycles messages are stalled in this MB (Unspecified)
system.caches.network.routers0.port_buffers12.m_buf_msgs     0.001228                       # Average number of messages in buffer (Unspecified)
system.caches.network.routers0.port_buffers12.m_stall_time  1999.999543                       # Average number of cycles messages are stalled in this MB (Unspecified)
system.caches.network.routers0.port_buffers2.m_buf_msgs     0.000628                       # Average number of messages in buffer (Unspecified)
system.caches.network.routers0.port_buffers2.m_stall_time  3999.978050                       # Average number of cycles messages are stalled in this MB (Unspecified)
system.caches.network.routers0.power_state.pwrStateResidencyTicks::UNDEFINED  13120672000                       # Cumulative time (in ticks) in various power states (Tick)
system.caches.network.routers0.throttle00.link_utilization     0.312781                       (Unspecified)
system.caches.network.routers0.throttle00.msg_count.Control::1         7864                       (Unspecified)
system.caches.network.routers0.throttle00.msg_bytes.Control::1        62912                       (Unspecified)
system.caches.network.routers0.throttle00.msg_count.Data::2         8246                       (Unspecified)
system.caches.network.routers0.throttle00.msg_bytes.Data::2       593712                       (Unspecified)
system.caches.network.routers0.throttle01.link_utilization            0                       (Unspecified)
system.caches.network.routers0.throttle02.link_utilization            0                       (Unspecified)
system.caches.network.routers0.throttle03.link_utilization            0                       (Unspecified)
system.caches.network.routers0.throttle04.link_utilization     0.095475                       (Unspecified)
system.caches.network.routers0.throttle04.msg_count.Control::0        14992                       (Unspecified)
system.caches.network.routers0.throttle04.msg_bytes.Control::0       119936                       (Unspecified)
system.caches.network.routers0.throttle04.msg_count.Data::0         1118                       (Unspecified)
system.caches.network.routers0.throttle04.msg_bytes.Data::0        80496                       (Unspecified)
system.caches.network.routers1.percent_links_utilized            0                       (Unspecified)
system.caches.network.routers1.power_state.pwrStateResidencyTicks::UNDEFINED  13120672000                       # Cumulative time (in ticks) in various power states (Tick)
system.caches.network.routers1.throttle00.link_utilization            0                       (Unspecified)
system.caches.network.routers1.throttle01.link_utilization            0                       (Unspecified)
system.caches.network.routers1.throttle02.link_utilization            0                       (Unspecified)
system.caches.network.routers1.throttle03.link_utilization            0                       (Unspecified)
system.caches.network.routers1.throttle04.link_utilization            0                       (Unspecified)
system.caches.network.routers2.percent_links_utilized            0                       (Unspecified)
system.caches.network.routers2.power_state.pwrStateResidencyTicks::UNDEFINED  13120672000                       # Cumulative time (in ticks) in various power states (Tick)
system.caches.network.routers2.throttle00.link_utilization            0                       (Unspecified)
system.caches.network.routers2.throttle01.link_utilization            0                       (Unspecified)
system.caches.network.routers2.throttle02.link_utilization            0                       (Unspecified)
system.caches.network.routers2.throttle03.link_utilization            0                       (Unspecified)
system.caches.network.routers2.throttle04.link_utilization            0                       (Unspecified)
system.caches.network.routers3.percent_links_utilized            0                       (Unspecified)
system.caches.network.routers3.power_state.pwrStateResidencyTicks::UNDEFINED  13120672000                       # Cumulative time (in ticks) in various power states (Tick)
system.caches.network.routers3.throttle00.link_utilization            0                       (Unspecified)
system.caches.network.routers3.throttle01.link_utilization            0                       (Unspecified)
system.caches.network.routers3.throttle02.link_utilization            0                       (Unspecified)
system.caches.network.routers3.throttle03.link_utilization            0                       (Unspecified)
system.caches.network.routers3.throttle04.link_utilization            0                       (Unspecified)
system.caches.network.routers4.percent_links_utilized     0.081651                       (Unspecified)
system.caches.network.routers4.msg_count.Control::0        14992                       (Unspecified)
system.caches.network.routers4.msg_count.Control::1         7864                       (Unspecified)
system.caches.network.routers4.msg_bytes.Control::0       119936                       (Unspecified)
system.caches.network.routers4.msg_bytes.Control::1        62912                       (Unspecified)
system.caches.network.routers4.msg_count.Data::0         1118                       (Unspecified)
system.caches.network.routers4.msg_count.Data::2         8246                       (Unspecified)
system.caches.network.routers4.msg_bytes.Data::0        80496                       (Unspecified)
system.caches.network.routers4.msg_bytes.Data::2       593712                       (Unspecified)
system.caches.network.routers4.port_buffers0.m_buf_msgs     0.001228                       # Average number of messages in buffer (Unspecified)
system.caches.network.routers4.port_buffers0.m_stall_time  3999.998476                       # Average number of cycles messages are stalled in this MB (Unspecified)
system.caches.network.routers4.port_buffers4.m_buf_msgs     0.000599                       # Average number of messages in buffer (Unspecified)
system.caches.network.routers4.port_buffers4.m_stall_time  1997.571466                       # Average number of cycles messages are stalled in this MB (Unspecified)
system.caches.network.routers4.port_buffers5.m_buf_msgs     0.000628                       # Average number of messages in buffer (Unspecified)
system.caches.network.routers4.port_buffers5.m_stall_time  1999.989330                       # Average number of cycles messages are stalled in this MB (Unspecified)
system.caches.network.routers4.power_state.pwrStateResidencyTicks::UNDEFINED  13120672000                       # Cumulative time (in ticks) in various power states (Tick)
system.caches.network.routers4.throttle00.link_utilization     0.095475                       (Unspecified)
system.caches.network.routers4.throttle00.msg_count.Control::0        14992                       (Unspecified)
system.caches.network.routers4.throttle00.msg_bytes.Control::0       119936                       (Unspecified)
system.caches.network.routers4.throttle00.msg_count.Data::0         1118                       (Unspecified)
system.caches.network.routers4.throttle00.msg_bytes.Data::0        80496                       (Unspecified)
system.caches.network.routers4.throttle01.link_utilization     0.312781                       (Unspecified)
system.caches.network.routers4.throttle01.msg_count.Control::1         7864                       (Unspecified)
system.caches.network.routers4.throttle01.msg_bytes.Control::1        62912                       (Unspecified)
system.caches.network.routers4.throttle01.msg_count.Data::2         8246                       (Unspecified)
system.caches.network.routers4.throttle01.msg_bytes.Data::2       593712                       (Unspecified)
system.caches.network.routers4.throttle02.link_utilization            0                       (Unspecified)
system.caches.network.routers4.throttle03.link_utilization            0                       (Unspecified)
system.caches.network.routers4.throttle04.link_utilization            0                       (Unspecified)
system.caches.power_state.pwrStateResidencyTicks::UNDEFINED  13120672000                       # Cumulative time (in ticks) in various power states (Tick)
system.caches.sequencers0.power_state.pwrStateResidencyTicks::UNDEFINED  13120672000                       # Cumulative time (in ticks) in various power states (Tick)
system.caches.sequencers1.power_state.pwrStateResidencyTicks::UNDEFINED  13120672000                       # Cumulative time (in ticks) in various power states (Tick)
system.caches.sequencers2.power_state.pwrStateResidencyTicks::UNDEFINED  13120672000                       # Cumulative time (in ticks) in various power states (Tick)
system.caches.sequencers3.power_state.pwrStateResidencyTicks::UNDEFINED  13120672000                       # Cumulative time (in ticks) in various power states (Tick)
system.caches.sys_port_proxy.power_state.pwrStateResidencyTicks::UNDEFINED  13120672000                       # Cumulative time (in ticks) in various power states (Tick)
system.clk_domain.clock                          1000                       # Clock period in ticks (Tick)
system.clk_domain.voltage_domain.voltage            1                       # Voltage in Volts (Volt)
system.cpu0.numCycles                        13120672                       # Number of cpu cycles simulated (Cycle)
system.cpu0.numWorkItemsStarted                     0                       # Number of work items this cpu started (Count)
system.cpu0.numWorkItemsCompleted                   0                       # Number of work items this cpu completed (Count)
system.cpu0.exec_context.thread_0.numInsts      3379540                       # Number of instructions committed (Count)
system.cpu0.exec_context.thread_0.numOps      6650100                       # Number of ops (including micro ops) committed (Count)
system.cpu0.exec_context.thread_0.numIntAluAccesses      6473778                       # Number of integer alu accesses (Count)
system.cpu0.exec_context.thread_0.numFpAluAccesses       231274                       # Number of float alu accesses (Count)
system.cpu0.exec_context.thread_0.numVecAluAccesses            0                       # Number of vector alu accesses (Count)
system.cpu0.exec_context.thread_0.numCallsReturns       104050                       # Number of times a function call or return occured (Count)
system.cpu0.exec_context.thread_0.numCondCtrlInsts       523773                       # Number of instructions that are conditional controls (Count)
system.cpu0.exec_context.thread_0.numIntInsts      6473778                       # Number of integer instructions (Count)
system.cpu0.exec_context.thread_0.numFpInsts       231274                       # Number of float instructions (Count)
system.cpu0.exec_context.thread_0.numVecInsts            0                       # Number of vector instructions (Count)
system.cpu0.exec_context.thread_0.numIntRegReads     12958397                       # Number of times the integer registers were read (Count)
system.cpu0.exec_context.thread_0.numIntRegWrites      5141909                       # Number of times the integer registers were written (Count)
system.cpu0.exec_context.thread_0.numFpRegReads       381771                       # Number of times the floating registers were read (Count)
system.cpu0.exec_context.thread_0.numFpRegWrites       196749                       # Number of times the floating registers were written (Count)
system.cpu0.exec_context.thread_0.numVecRegReads            0                       # Number of times the vector registers were read (Count)
system.cpu0.exec_context.thread_0.numVecRegWrites            0                       # Number of times the vector registers were written (Count)
system.cpu0.exec_context.thread_0.numVecPredRegReads            0                       # Number of times the predicate registers were read (Count)
system.cpu0.exec_context.thread_0.numVecPredRegWrites            0                       # Number of times the predicate registers were written (Count)
system.cpu0.exec_context.thread_0.numCCRegReads      3770511                       # Number of times the CC registers were read (Count)
system.cpu0.exec_context.thread_0.numCCRegWrites      1943332                       # Number of times the CC registers were written (Count)
system.cpu0.exec_context.thread_0.numMemRefs      1477436                       # Number of memory refs (Count)
system.cpu0.exec_context.thread_0.numLoadInsts       888005                       # Number of load instructions (Count)
system.cpu0.exec_context.thread_0.numStoreInsts       589431                       # Number of store instructions (Count)
system.cpu0.exec_context.thread_0.numIdleCycles     0.001000                       # Number of idle cycles (Cycle)
system.cpu0.exec_context.thread_0.numBusyCycles 13120671.999000                       # Number of busy cycles (Cycle)
system.cpu0.exec_context.thread_0.notIdleFraction     1.000000                       # Percentage of non-idle cycles (Ratio)
system.cpu0.exec_context.thread_0.idleFraction     0.000000                       # Percentage of idle cycles (Ratio)
system.cpu0.exec_context.thread_0.numBranches       725980                       # Number of branches fetched (Count)
system.cpu0.exec_context.thread_0.statExecutedInstType::No_OpClass        22185      0.33%      0.33% # Class of executed instruction. (Count)
system.cpu0.exec_context.thread_0.statExecutedInstType::IntAlu      4980699     74.90%     75.23% # Class of executed instruction. (Count)
system.cpu0.exec_context.thread_0.statExecutedInstType::IntMult        14179      0.21%     75.44% # Class of executed instruction. (Count)
system.cpu0.exec_context.thread_0.statExecutedInstType::IntDiv         1393      0.02%     75.46% # Class of executed instruction. (Count)
system.cpu0.exec_context.thread_0.statExecutedInstType::FloatAdd        10404      0.16%     75.62% # Class of executed instruction. (Count)
system.cpu0.exec_context.thread_0.statExecutedInstType::FloatCmp            0      0.00%     75.62% # Class of executed instruction. (Count)
system.cpu0.exec_context.thread_0.statExecutedInstType::FloatCvt           32      0.00%     75.62% # Class of executed instruction. (Count)
system.cpu0.exec_context.thread_0.statExecutedInstType::FloatMult            0      0.00%     75.62% # Class of executed instruction. (Count)
system.cpu0.exec_context.thread_0.statExecutedInstType::FloatMultAcc            0      0.00%     75.62% # Class of executed instruction. (Count)
system.cpu0.exec_context.thread_0.statExecutedInstType::FloatDiv            0      0.00%     75.62% # Class of executed instruction. (Count)
system.cpu0.exec_context.thread_0.statExecutedInstType::FloatMisc            0      0.00%     75.62% # Class of executed instruction. (Count)
system.cpu0.exec_context.thread_0.statExecutedInstType::FloatSqrt            0      0.00%     75.62% # Class of executed instruction. (Count)
system.cpu0.exec_context.thread_0.statExecutedInstType::SimdAdd          954      0.01%     75.63% # Class of executed instruction. (Count)
system.cpu0.exec_context.thread_0.statExecutedInstType::SimdAddAcc            0      0.00%     75.63% # Class of executed instruction. (Count)
system.cpu0.exec_context.thread_0.statExecutedInstType::SimdAlu        33784      0.51%     76.14% # Class of executed instruction. (Count)
system.cpu0.exec_context.thread_0.statExecutedInstType::SimdCmp            0      0.00%     76.14% # Class of executed instruction. (Count)
system.cpu0.exec_context.thread_0.statExecutedInstType::SimdCvt        34094      0.51%     76.66% # Class of executed instruction. (Count)
system.cpu0.exec_context.thread_0.statExecutedInstType::SimdMisc        74651      1.12%     77.78% # Class of executed instruction. (Count)
system.cpu0.exec_context.thread_0.statExecutedInstType::SimdMult            0      0.00%     77.78% # Class of executed instruction. (Count)
system.cpu0.exec_context.thread_0.statExecutedInstType::SimdMultAcc            0      0.00%     77.78% # Class of executed instruction. (Count)
system.cpu0.exec_context.thread_0.statExecutedInstType::SimdShift          399      0.01%     77.78% # Class of executed instruction. (Count)
system.cpu0.exec_context.thread_0.statExecutedInstType::SimdShiftAcc            0      0.00%     77.78% # Class of executed instruction. (Count)
system.cpu0.exec_context.thread_0.statExecutedInstType::SimdDiv            0      0.00%     77.78% # Class of executed instruction. (Count)
system.cpu0.exec_context.thread_0.statExecutedInstType::SimdSqrt            0      0.00%     77.78% # Class of executed instruction. (Count)
system.cpu0.exec_context.thread_0.statExecutedInstType::SimdFloatAdd            0      0.00%     77.78% # Class of executed instruction. (Count)
system.cpu0.exec_context.thread_0.statExecutedInstType::SimdFloatAlu            0      0.00%     77.78% # Class of executed instruction. (Count)
system.cpu0.exec_context.thread_0.statExecutedInstType::SimdFloatCmp            0      0.00%     77.78% # Class of executed instruction. (Count)
system.cpu0.exec_context.thread_0.statExecutedInstType::SimdFloatCvt            0      0.00%     77.78% # Class of executed instruction. (Count)
system.cpu0.exec_context.thread_0.statExecutedInstType::SimdFloatDiv            0      0.00%     77.78% # Class of executed instruction. (Count)
system.cpu0.exec_context.thread_0.statExecutedInstType::SimdFloatMisc            0      0.00%     77.78% # Class of executed instruction. (Count)
system.cpu0.exec_context.thread_0.statExecutedInstType::SimdFloatMult            0      0.00%     77.78% # Class of executed instruction. (Count)
system.cpu0.exec_context.thread_0.statExecutedInstType::SimdFloatMultAcc            0      0.00%     77.78% # Class of executed instruction. (Count)
system.cpu0.exec_context.thread_0.statExecutedInstType::SimdFloatSqrt            0      0.00%     77.78% # Class of executed instruction. (Count)
system.cpu0.exec_context.thread_0.statExecutedInstType::SimdReduceAdd            0      0.00%     77.78% # Class of executed instruction. (Count)
system.cpu0.exec_context.thread_0.statExecutedInstType::SimdReduceAlu            0      0.00%     77.78% # Class of executed instruction. (Count)
system.cpu0.exec_context.thread_0.statExecutedInstType::SimdReduceCmp            0      0.00%     77.78% # Class of executed instruction. (Count)
system.cpu0.exec_context.thread_0.statExecutedInstType::SimdFloatReduceAdd            0      0.00%     77.78% # Class of executed instruction. (Count)
system.cpu0.exec_context.thread_0.statExecutedInstType::SimdFloatReduceCmp            0      0.00%     77.78% # Class of executed instruction. (Count)
system.cpu0.exec_context.thread_0.statExecutedInstType::SimdAes            0      0.00%     77.78% # Class of executed instruction. (Count)
system.cpu0.exec_context.thread_0.statExecutedInstType::SimdAesMix            0      0.00%     77.78% # Class of executed instruction. (Count)
system.cpu0.exec_context.thread_0.statExecutedInstType::SimdSha1Hash            0      0.00%     77.78% # Class of executed instruction. (Count)
system.cpu0.exec_context.thread_0.statExecutedInstType::SimdSha1Hash2            0      0.00%     77.78% # Class of executed instruction. (Count)
system.cpu0.exec_context.thread_0.statExecutedInstType::SimdSha256Hash            0      0.00%     77.78% # Class of executed instruction. (Count)
system.cpu0.exec_context.thread_0.statExecutedInstType::SimdSha256Hash2            0      0.00%     77.78% # Class of executed instruction. (Count)
system.cpu0.exec_context.thread_0.statExecutedInstType::SimdShaSigma2            0      0.00%     77.78% # Class of executed instruction. (Count)
system.cpu0.exec_context.thread_0.statExecutedInstType::SimdShaSigma3            0      0.00%     77.78% # Class of executed instruction. (Count)
system.cpu0.exec_context.thread_0.statExecutedInstType::SimdPredAlu            0      0.00%     77.78% # Class of executed instruction. (Count)
system.cpu0.exec_context.thread_0.statExecutedInstType::MemRead       853653     12.84%     90.62% # Class of executed instruction. (Count)
system.cpu0.exec_context.thread_0.statExecutedInstType::MemWrite       571997      8.60%     99.22% # Class of executed instruction. (Count)
system.cpu0.exec_context.thread_0.statExecutedInstType::FloatMemRead        34352      0.52%     99.74% # Class of executed instruction. (Count)
system.cpu0.exec_context.thread_0.statExecutedInstType::FloatMemWrite        17434      0.26%    100.00% # Class of executed instruction. (Count)
system.cpu0.exec_context.thread_0.statExecutedInstType::IprAccess            0      0.00%    100.00% # Class of executed instruction. (Count)
system.cpu0.exec_context.thread_0.statExecutedInstType::InstPrefetch            0      0.00%    100.00% # Class of executed instruction. (Count)
system.cpu0.exec_context.thread_0.statExecutedInstType::total      6650210                       # Class of executed instruction. (Count)
system.cpu0.interrupts.clk_domain.clock         16000                       # Clock period in ticks (Tick)
system.cpu0.mmu.dtb.rdAccesses                 888009                       # TLB accesses on read requests (Count)
system.cpu0.mmu.dtb.wrAccesses                 589748                       # TLB accesses on write requests (Count)
system.cpu0.mmu.dtb.rdMisses                      158                       # TLB misses on read requests (Count)
system.cpu0.mmu.dtb.wrMisses                       36                       # TLB misses on write requests (Count)
system.cpu0.mmu.dtb.walker.power_state.pwrStateResidencyTicks::UNDEFINED  13120672000                       # Cumulative time (in ticks) in various power states (Tick)
system.cpu0.mmu.itb.rdAccesses                      0                       # TLB accesses on read requests (Count)
system.cpu0.mmu.itb.wrAccesses                4780387                       # TLB accesses on write requests (Count)
system.cpu0.mmu.itb.rdMisses                        0                       # TLB misses on read requests (Count)
system.cpu0.mmu.itb.wrMisses                      184                       # TLB misses on write requests (Count)
system.cpu0.mmu.itb.walker.power_state.pwrStateResidencyTicks::UNDEFINED  13120672000                       # Cumulative time (in ticks) in various power states (Tick)
system.cpu0.power_state.pwrStateResidencyTicks::ON  13120672000                       # Cumulative time (in ticks) in various power states (Tick)
system.cpu0.thread_0.numInsts                       0                       # Number of Instructions committed (Count)
system.cpu0.thread_0.numOps                         0                       # Number of Ops committed (Count)
system.cpu0.thread_0.numMemRefs                     0                       # Number of Memory References (Count)
system.cpu0.workload.numSyscalls                   45                       # Number of system calls (Count)
system.cpu1.numCycles                               0                       # Number of cpu cycles simulated (Cycle)
system.cpu1.numWorkItemsStarted                     0                       # Number of work items this cpu started (Count)
system.cpu1.numWorkItemsCompleted                   0                       # Number of work items this cpu completed (Count)
system.cpu1.exec_context.thread_0.numInsts            0                       # Number of instructions committed (Count)
system.cpu1.exec_context.thread_0.numOps            0                       # Number of ops (including micro ops) committed (Count)
system.cpu1.exec_context.thread_0.numIntAluAccesses            0                       # Number of integer alu accesses (Count)
system.cpu1.exec_context.thread_0.numFpAluAccesses            0                       # Number of float alu accesses (Count)
system.cpu1.exec_context.thread_0.numVecAluAccesses            0                       # Number of vector alu accesses (Count)
system.cpu1.exec_context.thread_0.numCallsReturns            0                       # Number of times a function call or return occured (Count)
system.cpu1.exec_context.thread_0.numCondCtrlInsts            0                       # Number of instructions that are conditional controls (Count)
system.cpu1.exec_context.thread_0.numIntInsts            0                       # Number of integer instructions (Count)
system.cpu1.exec_context.thread_0.numFpInsts            0                       # Number of float instructions (Count)
system.cpu1.exec_context.thread_0.numVecInsts            0                       # Number of vector instructions (Count)
system.cpu1.exec_context.thread_0.numIntRegReads            0                       # Number of times the integer registers were read (Count)
system.cpu1.exec_context.thread_0.numIntRegWrites            0                       # Number of times the integer registers were written (Count)
system.cpu1.exec_context.thread_0.numFpRegReads            0                       # Number of times the floating registers were read (Count)
system.cpu1.exec_context.thread_0.numFpRegWrites            0                       # Number of times the floating registers were written (Count)
system.cpu1.exec_context.thread_0.numVecRegReads            0                       # Number of times the vector registers were read (Count)
system.cpu1.exec_context.thread_0.numVecRegWrites            0                       # Number of times the vector registers were written (Count)
system.cpu1.exec_context.thread_0.numVecPredRegReads            0                       # Number of times the predicate registers were read (Count)
system.cpu1.exec_context.thread_0.numVecPredRegWrites            0                       # Number of times the predicate registers were written (Count)
system.cpu1.exec_context.thread_0.numMemRefs            0                       # Number of memory refs (Count)
system.cpu1.exec_context.thread_0.numLoadInsts            0                       # Number of load instructions (Count)
system.cpu1.exec_context.thread_0.numStoreInsts            0                       # Number of store instructions (Count)
system.cpu1.exec_context.thread_0.numIdleCycles            0                       # Number of idle cycles (Cycle)
system.cpu1.exec_context.thread_0.numBusyCycles            0                       # Number of busy cycles (Cycle)
system.cpu1.exec_context.thread_0.notIdleFraction            0                       # Percentage of non-idle cycles (Ratio)
system.cpu1.exec_context.thread_0.idleFraction            1                       # Percentage of idle cycles (Ratio)
system.cpu1.exec_context.thread_0.statExecutedInstType::No_OpClass            0                       # Class of executed instruction. (Count)
system.cpu1.exec_context.thread_0.statExecutedInstType::IntAlu            0                       # Class of executed instruction. (Count)
system.cpu1.exec_context.thread_0.statExecutedInstType::IntMult            0                       # Class of executed instruction. (Count)
system.cpu1.exec_context.thread_0.statExecutedInstType::IntDiv            0                       # Class of executed instruction. (Count)
system.cpu1.exec_context.thread_0.statExecutedInstType::FloatAdd            0                       # Class of executed instruction. (Count)
system.cpu1.exec_context.thread_0.statExecutedInstType::FloatCmp            0                       # Class of executed instruction. (Count)
system.cpu1.exec_context.thread_0.statExecutedInstType::FloatCvt            0                       # Class of executed instruction. (Count)
system.cpu1.exec_context.thread_0.statExecutedInstType::FloatMult            0                       # Class of executed instruction. (Count)
system.cpu1.exec_context.thread_0.statExecutedInstType::FloatMultAcc            0                       # Class of executed instruction. (Count)
system.cpu1.exec_context.thread_0.statExecutedInstType::FloatDiv            0                       # Class of executed instruction. (Count)
system.cpu1.exec_context.thread_0.statExecutedInstType::FloatMisc            0                       # Class of executed instruction. (Count)
system.cpu1.exec_context.thread_0.statExecutedInstType::FloatSqrt            0                       # Class of executed instruction. (Count)
system.cpu1.exec_context.thread_0.statExecutedInstType::SimdAdd            0                       # Class of executed instruction. (Count)
system.cpu1.exec_context.thread_0.statExecutedInstType::SimdAddAcc            0                       # Class of executed instruction. (Count)
system.cpu1.exec_context.thread_0.statExecutedInstType::SimdAlu            0                       # Class of executed instruction. (Count)
system.cpu1.exec_context.thread_0.statExecutedInstType::SimdCmp            0                       # Class of executed instruction. (Count)
system.cpu1.exec_context.thread_0.statExecutedInstType::SimdCvt            0                       # Class of executed instruction. (Count)
system.cpu1.exec_context.thread_0.statExecutedInstType::SimdMisc            0                       # Class of executed instruction. (Count)
system.cpu1.exec_context.thread_0.statExecutedInstType::SimdMult            0                       # Class of executed instruction. (Count)
system.cpu1.exec_context.thread_0.statExecutedInstType::SimdMultAcc            0                       # Class of executed instruction. (Count)
system.cpu1.exec_context.thread_0.statExecutedInstType::SimdShift            0                       # Class of executed instruction. (Count)
system.cpu1.exec_context.thread_0.statExecutedInstType::SimdShiftAcc            0                       # Class of executed instruction. (Count)
system.cpu1.exec_context.thread_0.statExecutedInstType::SimdDiv            0                       # Class of executed instruction. (Count)
system.cpu1.exec_context.thread_0.statExecutedInstType::SimdSqrt            0                       # Class of executed instruction. (Count)
system.cpu1.exec_context.thread_0.statExecutedInstType::SimdFloatAdd            0                       # Class of executed instruction. (Count)
system.cpu1.exec_context.thread_0.statExecutedInstType::SimdFloatAlu            0                       # Class of executed instruction. (Count)
system.cpu1.exec_context.thread_0.statExecutedInstType::SimdFloatCmp            0                       # Class of executed instruction. (Count)
system.cpu1.exec_context.thread_0.statExecutedInstType::SimdFloatCvt            0                       # Class of executed instruction. (Count)
system.cpu1.exec_context.thread_0.statExecutedInstType::SimdFloatDiv            0                       # Class of executed instruction. (Count)
system.cpu1.exec_context.thread_0.statExecutedInstType::SimdFloatMisc            0                       # Class of executed instruction. (Count)
system.cpu1.exec_context.thread_0.statExecutedInstType::SimdFloatMult            0                       # Class of executed instruction. (Count)
system.cpu1.exec_context.thread_0.statExecutedInstType::SimdFloatMultAcc            0                       # Class of executed instruction. (Count)
system.cpu1.exec_context.thread_0.statExecutedInstType::SimdFloatSqrt            0                       # Class of executed instruction. (Count)
system.cpu1.exec_context.thread_0.statExecutedInstType::SimdReduceAdd            0                       # Class of executed instruction. (Count)
system.cpu1.exec_context.thread_0.statExecutedInstType::SimdReduceAlu            0                       # Class of executed instruction. (Count)
system.cpu1.exec_context.thread_0.statExecutedInstType::SimdReduceCmp            0                       # Class of executed instruction. (Count)
system.cpu1.exec_context.thread_0.statExecutedInstType::SimdFloatReduceAdd            0                       # Class of executed instruction. (Count)
system.cpu1.exec_context.thread_0.statExecutedInstType::SimdFloatReduceCmp            0                       # Class of executed instruction. (Count)
system.cpu1.exec_context.thread_0.statExecutedInstType::SimdAes            0                       # Class of executed instruction. (Count)
system.cpu1.exec_context.thread_0.statExecutedInstType::SimdAesMix            0                       # Class of executed instruction. (Count)
system.cpu1.exec_context.thread_0.statExecutedInstType::SimdSha1Hash            0                       # Class of executed instruction. (Count)
system.cpu1.exec_context.thread_0.statExecutedInstType::SimdSha1Hash2            0                       # Class of executed instruction. (Count)
[...]
system.mem_ctrl.rdPerTurnAround::samples           68                       # Reads before turning the bus around for writes (Count)
system.mem_ctrl.rdPerTurnAround::mean      119.161765                       # Reads before turning the bus around for writes (Count)
system.mem_ctrl.rdPerTurnAround::gmean      73.101877                       # Reads before turning the bus around for writes (Count)
system.mem_ctrl.rdPerTurnAround::stdev     212.085002                       # Reads before turning the bus around for writes (Count)
system.mem_ctrl.rdPerTurnAround::0-63              40     58.82%     58.82% # Reads before turning the bus around for writes (Count)
system.mem_ctrl.rdPerTurnAround::64-127            18     26.47%     85.29% # Reads before turning the bus around for writes (Count)
system.mem_ctrl.rdPerTurnAround::128-191            3      4.41%     89.71% # Reads before turning the bus around for writes (Count)
system.mem_ctrl.rdPerTurnAround::192-255            3      4.41%     94.12% # Reads before turning the bus around for writes (Count)
system.mem_ctrl.rdPerTurnAround::320-383            1      1.47%     95.59% # Reads before turning the bus around for writes (Count)
system.mem_ctrl.rdPerTurnAround::768-831            1      1.47%     97.06% # Reads before turning the bus around for writes (Count)
system.mem_ctrl.rdPerTurnAround::1024-1087            1      1.47%     98.53% # Reads before turning the bus around for writes (Count)
system.mem_ctrl.rdPerTurnAround::1280-1343            1      1.47%    100.00% # Reads before turning the bus around for writes (Count)
system.mem_ctrl.rdPerTurnAround::total             68                       # Reads before turning the bus around for writes (Count)
system.mem_ctrl.wrPerTurnAround::samples           68                       # Writes before turning the bus around for reads (Count)
system.mem_ctrl.wrPerTurnAround::mean              16                       # Writes before turning the bus around for reads (Count)
system.mem_ctrl.wrPerTurnAround::gmean      16.000000                       # Writes before turning the bus around for reads (Count)
system.mem_ctrl.wrPerTurnAround::16                68    100.00%    100.00% # Writes before turning the bus around for reads (Count)
system.mem_ctrl.wrPerTurnAround::total             68                       # Writes before turning the bus around for reads (Count)
system.mem_ctrl.bytesReadWrQ                     7296                       # Total number of bytes read from write queue (Byte)
system.mem_ctrl.bytesReadSys                   527744                       # Total read bytes from the system interface side (Byte)
system.mem_ctrl.bytesWrittenSys                 71552                       # Total written bytes from the system interface side (Byte)
system.mem_ctrl.avgRdBWSys               40222330.07577661                       # Average system read bandwidth in Byte/s ((Byte/Second))
system.mem_ctrl.avgWrBWSys               5453379.21716205                       # Average system write bandwidth in Byte/s ((Byte/Second))
system.mem_ctrl.totGap                    13120613000                       # Total gap between requests (Tick)
system.mem_ctrl.avgGap                     1401176.10                       # Average gap between requests ((Tick/Count))
system.mem_ctrl.requestorReadBytes::caches.controllers4       520448                       # Per-requestor bytes read from memory (Byte)
system.mem_ctrl.requestorWriteBytes::caches.controllers4        69632                       # Per-requestor bytes write to memory (Byte)
system.mem_ctrl.requestorReadRate::caches.controllers4 39666260.996387988329                       # Per-requestor bytes read from memory rate ((Byte/Second))
system.mem_ctrl.requestorWriteRate::caches.controllers4 5307045.248901885934                       # Per-requestor bytes write to memory rate ((Byte/Second))
system.mem_ctrl.requestorReadAccesses::caches.controllers4         8246                       # Per-requestor read serviced memory accesses (Count)
system.mem_ctrl.requestorWriteAccesses::caches.controllers4         1118                       # Per-requestor write serviced memory accesses (Count)
system.mem_ctrl.requestorReadTotalLat::caches.controllers4    260497250                       # Per-requestor read total memory access latency (Tick)
system.mem_ctrl.requestorWriteTotalLat::caches.controllers4 324566509750                       # Per-requestor write total memory access latency (Tick)
system.mem_ctrl.requestorReadAvgLat::caches.controllers4     31590.74                       # Per-requestor read average memory access latency ((Tick/Count))
system.mem_ctrl.requestorWriteAvgLat::caches.controllers4 290309937.16                       # Per-requestor write average memory access latency ((Tick/Count))
system.mem_ctrl.dram.bytesRead::caches.controllers4       527744                       # Number of bytes read from this memory (Byte)
system.mem_ctrl.dram.bytesRead::total          527744                       # Number of bytes read from this memory (Byte)
system.mem_ctrl.dram.bytesWritten::caches.controllers4        71552                       # Number of bytes written to this memory (Byte)
system.mem_ctrl.dram.bytesWritten::total        71552                       # Number of bytes written to this memory (Byte)
system.mem_ctrl.dram.numReads::caches.controllers4         8246                       # Number of read requests responded to by this memory (Count)
system.mem_ctrl.dram.numReads::total             8246                       # Number of read requests responded to by this memory (Count)
system.mem_ctrl.dram.numWrites::caches.controllers4         1118                       # Number of write requests responded to by this memory (Count)
system.mem_ctrl.dram.numWrites::total            1118                       # Number of write requests responded to by this memory (Count)
system.mem_ctrl.dram.bwRead::caches.controllers4     40222330                       # Total read bandwidth from this memory ((Byte/Second))
system.mem_ctrl.dram.bwRead::total           40222330                       # Total read bandwidth from this memory ((Byte/Second))
system.mem_ctrl.dram.bwWrite::caches.controllers4      5453379                       # Write bandwidth from this memory ((Byte/Second))
system.mem_ctrl.dram.bwWrite::total           5453379                       # Write bandwidth from this memory ((Byte/Second))
system.mem_ctrl.dram.bwTotal::caches.controllers4     45675709                       # Total bandwidth to/from this memory ((Byte/Second))
system.mem_ctrl.dram.bwTotal::total          45675709                       # Total bandwidth to/from this memory ((Byte/Second))
system.mem_ctrl.dram.readBursts                  8132                       # Number of DRAM read bursts (Count)
system.mem_ctrl.dram.writeBursts                 1088                       # Number of DRAM write bursts (Count)
system.mem_ctrl.dram.perBankRdBursts::0          2131                       # Per bank write bursts (Count)
system.mem_ctrl.dram.perBankRdBursts::1           961                       # Per bank write bursts (Count)
system.mem_ctrl.dram.perBankRdBursts::2           334                       # Per bank write bursts (Count)
system.mem_ctrl.dram.perBankRdBursts::3           369                       # Per bank write bursts (Count)
system.mem_ctrl.dram.perBankRdBursts::4           189                       # Per bank write bursts (Count)
system.mem_ctrl.dram.perBankRdBursts::5           190                       # Per bank write bursts (Count)
system.mem_ctrl.dram.perBankRdBursts::6           599                       # Per bank write bursts (Count)
system.mem_ctrl.dram.perBankRdBursts::7           663                       # Per bank write bursts (Count)
system.mem_ctrl.dram.perBankRdBursts::8           410                       # Per bank write bursts (Count)
system.mem_ctrl.dram.perBankRdBursts::9           266                       # Per bank write bursts (Count)
system.mem_ctrl.dram.perBankRdBursts::10          230                       # Per bank write bursts (Count)
system.mem_ctrl.dram.perBankRdBursts::11          151                       # Per bank write bursts (Count)
system.mem_ctrl.dram.perBankRdBursts::12          290                       # Per bank write bursts (Count)
system.mem_ctrl.dram.perBankRdBursts::13          588                       # Per bank write bursts (Count)
system.mem_ctrl.dram.perBankRdBursts::14          423                       # Per bank write bursts (Count)
system.mem_ctrl.dram.perBankRdBursts::15          338                       # Per bank write bursts (Count)
system.mem_ctrl.dram.perBankWrBursts::0           101                       # Per bank write bursts (Count)
system.mem_ctrl.dram.perBankWrBursts::1            76                       # Per bank write bursts (Count)
system.mem_ctrl.dram.perBankWrBursts::2            85                       # Per bank write bursts (Count)
system.mem_ctrl.dram.perBankWrBursts::3            67                       # Per bank write bursts (Count)
system.mem_ctrl.dram.perBankWrBursts::4            53                       # Per bank write bursts (Count)
system.mem_ctrl.dram.perBankWrBursts::5            11                       # Per bank write bursts (Count)
system.mem_ctrl.dram.perBankWrBursts::6           168                       # Per bank write bursts (Count)
system.mem_ctrl.dram.perBankWrBursts::7           207                       # Per bank write bursts (Count)
system.mem_ctrl.dram.perBankWrBursts::8             5                       # Per bank write bursts (Count)
system.mem_ctrl.dram.perBankWrBursts::9             0                       # Per bank write bursts (Count)
system.mem_ctrl.dram.perBankWrBursts::10            0                       # Per bank write bursts (Count)
system.mem_ctrl.dram.perBankWrBursts::11            0                       # Per bank write bursts (Count)
system.mem_ctrl.dram.perBankWrBursts::12           68                       # Per bank write bursts (Count)
system.mem_ctrl.dram.perBankWrBursts::13          184                       # Per bank write bursts (Count)
system.mem_ctrl.dram.perBankWrBursts::14           63                       # Per bank write bursts (Count)
system.mem_ctrl.dram.perBankWrBursts::15            0                       # Per bank write bursts (Count)
system.mem_ctrl.dram.totQLat                108022250                       # Total ticks spent queuing (Tick)
system.mem_ctrl.dram.totBusLat               40660000                       # Total ticks spent in databus transfers (Tick)
system.mem_ctrl.dram.totMemAccLat           260497250                       # Total ticks spent from burst creation until serviced by the DRAM (Tick)
system.mem_ctrl.dram.avgQLat                 13283.60                       # Average queueing delay per DRAM burst ((Tick/Count))
system.mem_ctrl.dram.avgBusLat                5000.00                       # Average bus latency per DRAM burst ((Tick/Count))
system.mem_ctrl.dram.avgMemAccLat            32033.60                       # Average memory access latency per DRAM burst ((Tick/Count))
system.mem_ctrl.dram.readRowHits                 4629                       # Number of row buffer hits during reads (Count)
system.mem_ctrl.dram.writeRowHits                 954                       # Number of row buffer hits during writes (Count)
system.mem_ctrl.dram.readRowHitRate             56.92                       # Row buffer hit rate for reads (Ratio)
system.mem_ctrl.dram.writeRowHitRate            87.68                       # Row buffer hit rate for writes (Ratio)
system.mem_ctrl.dram.bytesPerActivate::samples         3634                       # Bytes accessed per row activation (Byte)
system.mem_ctrl.dram.bytesPerActivate::mean   162.307100                       # Bytes accessed per row activation (Byte)
system.mem_ctrl.dram.bytesPerActivate::gmean   105.348682                       # Bytes accessed per row activation (Byte)
system.mem_ctrl.dram.bytesPerActivate::stdev   213.251695                       # Bytes accessed per row activation (Byte)
system.mem_ctrl.dram.bytesPerActivate::0-127         2367     65.13%     65.13% # Bytes accessed per row activation (Byte)
system.mem_ctrl.dram.bytesPerActivate::128-255          649     17.86%     82.99% # Bytes accessed per row activation (Byte)
system.mem_ctrl.dram.bytesPerActivate::256-383          256      7.04%     90.04% # Bytes accessed per row activation (Byte)
system.mem_ctrl.dram.bytesPerActivate::384-511           87      2.39%     92.43% # Bytes accessed per row activation (Byte)
system.mem_ctrl.dram.bytesPerActivate::512-639           54      1.49%     93.92% # Bytes accessed per row activation (Byte)
system.mem_ctrl.dram.bytesPerActivate::640-767           45      1.24%     95.16% # Bytes accessed per row activation (Byte)
system.mem_ctrl.dram.bytesPerActivate::768-895           39      1.07%     96.23% # Bytes accessed per row activation (Byte)
system.mem_ctrl.dram.bytesPerActivate::896-1023           29      0.80%     97.03% # Bytes accessed per row activation (Byte)
system.mem_ctrl.dram.bytesPerActivate::1024-1151          108      2.97%    100.00% # Bytes accessed per row activation (Byte)
system.mem_ctrl.dram.bytesPerActivate::total         3634                       # Bytes accessed per row activation (Byte)
system.mem_ctrl.dram.bytesRead                 520448                       # Total number of bytes read from DRAM (Byte)
system.mem_ctrl.dram.bytesWritten               69632                       # Total number of bytes written to DRAM (Byte)
system.mem_ctrl.dram.avgRdBW                39.666261                       # Average DRAM read bandwidth in MiBytes/s ((Byte/Second))
system.mem_ctrl.dram.avgWrBW                 5.307045                       # Average DRAM write bandwidth in MiBytes/s ((Byte/Second))
system.mem_ctrl.dram.peakBW                  12800.00                       # Theoretical peak bandwidth in MiByte/s ((Byte/Second))
system.mem_ctrl.dram.busUtil                     0.35                       # Data bus utilization in percentage (Ratio)
system.mem_ctrl.dram.busUtilRead                 0.31                       # Data bus utilization in percentage for reads (Ratio)
system.mem_ctrl.dram.busUtilWrite                0.04                       # Data bus utilization in percentage for writes (Ratio)
system.mem_ctrl.dram.pageHitRate                60.55                       # Row buffer hit rate, read and write combined (Ratio)
system.mem_ctrl.dram.power_state.pwrStateResidencyTicks::UNDEFINED  13120672000                       # Cumulative time (in ticks) in various power states (Tick)
system.mem_ctrl.dram.rank0.actEnergy         19749240                       # Energy for activate commands per rank (pJ) (Joule)
system.mem_ctrl.dram.rank0.preEnergy         10489380                       # Energy for precharge commands per rank (pJ) (Joule)
system.mem_ctrl.dram.rank0.readEnergy        38813040                       # Energy for read commands per rank (pJ) (Joule)
system.mem_ctrl.dram.rank0.writeEnergy        4008960                       # Energy for write commands per rank (pJ) (Joule)
system.mem_ctrl.dram.rank0.refreshEnergy 1035668400.000000                       # Energy for refresh commands per rank (pJ) (Joule)
system.mem_ctrl.dram.rank0.actBackEnergy   1789697970                       # Energy for active background per rank (pJ) (Joule)
system.mem_ctrl.dram.rank0.preBackEnergy   3531224160                       # Energy for precharge background per rank (pJ) (Joule)
system.mem_ctrl.dram.rank0.actPowerDownEnergy            0                       # Energy for active power-down per rank (pJ) (Joule)
system.mem_ctrl.dram.rank0.prePowerDownEnergy            0                       # Energy for precharge power-down per rank (pJ) (Joule)
system.mem_ctrl.dram.rank0.selfRefreshEnergy            0                       # Energy for self refresh per rank (pJ) (Joule)
system.mem_ctrl.dram.rank0.totalEnergy     6429651150                       # Total energy per rank (pJ) (Joule)
system.mem_ctrl.dram.rank0.averagePower    490.039775                       # Core power per rank (mW) (Watt)
system.mem_ctrl.dram.rank0.totalIdleTime            0                       # Total Idle time Per DRAM Rank (Tick)
system.mem_ctrl.dram.rank0.pwrStateTime::IDLE   9160576000                       # Time in different power states (Tick)
system.mem_ctrl.dram.rank0.pwrStateTime::REF    438100000                       # Time in different power states (Tick)
system.mem_ctrl.dram.rank0.pwrStateTime::SREF            0                       # Time in different power states (Tick)
system.mem_ctrl.dram.rank0.pwrStateTime::PRE_PDN            0                       # Time in different power states (Tick)
system.mem_ctrl.dram.rank0.pwrStateTime::ACT   3521996000                       # Time in different power states (Tick)
system.mem_ctrl.dram.rank0.pwrStateTime::ACT_PDN            0                       # Time in different power states (Tick)
system.mem_ctrl.dram.rank1.actEnergy          6218940                       # Energy for activate commands per rank (pJ) (Joule)
system.mem_ctrl.dram.rank1.preEnergy          3301650                       # Energy for precharge commands per rank (pJ) (Joule)
system.mem_ctrl.dram.rank1.readEnergy        19249440                       # Energy for read commands per rank (pJ) (Joule)
system.mem_ctrl.dram.rank1.writeEnergy        1670400                       # Energy for write commands per rank (pJ) (Joule)
system.mem_ctrl.dram.rank1.refreshEnergy 1035668400.000000                       # Energy for refresh commands per rank (pJ) (Joule)
system.mem_ctrl.dram.rank1.actBackEnergy    952959630                       # Energy for active background per rank (pJ) (Joule)
system.mem_ctrl.dram.rank1.preBackEnergy   4235845920                       # Energy for precharge background per rank (pJ) (Joule)
system.mem_ctrl.dram.rank1.actPowerDownEnergy            0                       # Energy for active power-down per rank (pJ) (Joule)
system.mem_ctrl.dram.rank1.prePowerDownEnergy            0                       # Energy for precharge power-down per rank (pJ) (Joule)
system.mem_ctrl.dram.rank1.selfRefreshEnergy            0                       # Energy for self refresh per rank (pJ) (Joule)
system.mem_ctrl.dram.rank1.totalEnergy     6254914380                       # Total energy per rank (pJ) (Joule)
system.mem_ctrl.dram.rank1.averagePower    476.722105                       # Core power per rank (mW) (Watt)
system.mem_ctrl.dram.rank1.totalIdleTime            0                       # Total Idle time Per DRAM Rank (Tick)
system.mem_ctrl.dram.rank1.pwrStateTime::IDLE  11003119000                       # Time in different power states (Tick)
system.mem_ctrl.dram.rank1.pwrStateTime::REF    438100000                       # Time in different power states (Tick)
system.mem_ctrl.dram.rank1.pwrStateTime::SREF            0                       # Time in different power states (Tick)
system.mem_ctrl.dram.rank1.pwrStateTime::PRE_PDN            0                       # Time in different power states (Tick)
system.mem_ctrl.dram.rank1.pwrStateTime::ACT   1679453000                       # Time in different power states (Tick)
system.mem_ctrl.dram.rank1.pwrStateTime::ACT_PDN            0                       # Time in different power states (Tick)
system.mem_ctrl.power_state.pwrStateResidencyTicks::UNDEFINED  13120672000                       # Cumulative time (in ticks) in various power states (Tick)
system.workload.inst.arm                            0                       # number of arm instructions executed (Count)
system.workload.inst.quiesce                        0                       # number of quiesce instructions executed (Count)

---------- End Simulation Statistics   ----------
