
---------- Begin Simulation Statistics ----------
simSeconds                                   0.601431                       # Number of seconds simulated (Second)
simTicks                                 601430893000                       # Number of ticks simulated (Tick)
finalTick                                601430893000                       # Number of ticks from beginning of simulation (restored from checkpoints and never reset) (Tick)
simFreq                                  1000000000000                       # The number of ticks per simulated second ((Tick/Second))
hostSeconds                                    772.35                       # Real time elapsed on the host (Second)
hostTickRate                                778699521                       # The number of ticks simulated per host second (ticks/s) ((Tick/Second))
hostMemory                                     839188                       # Number of bytes of host memory used (Byte)
simInsts                                    226974892                       # Number of instructions simulated (Count)
simOps                                      368989437                       # Number of ops (including micro ops) simulated (Count)
hostInstRate                                   293875                       # Simulator instruction rate (inst/s) ((Count/Second))
hostOpRate                                     477747                       # Simulator op (including micro ops) rate (op/s) ((Count/Second))
system.caches.m_outstandReqHistSeqr::bucket_size            1                       (Unspecified)
system.caches.m_outstandReqHistSeqr::max_bucket            9                       (Unspecified)
system.caches.m_outstandReqHistSeqr::samples    391700545                       (Unspecified)
system.caches.m_outstandReqHistSeqr::mean     1.000002                       (Unspecified)
system.caches.m_outstandReqHistSeqr::gmean     1.000002                       (Unspecified)
system.caches.m_outstandReqHistSeqr::stdev     0.001561                       (Unspecified)
system.caches.m_outstandReqHistSeqr      |           0      0.00%      0.00% |   391699590    100.00%    100.00% |         955      0.00%    100.00% |           0      0.00%    100.00% |           0      0.00%    100.00% |           0      0.00%    100.00% |           0      0.00%    100.00% |           0      0.00%    100.00% |           0      0.00%    100.00% |           0      0.00%    100.00% (Unspecified)
system.caches.m_outstandReqHistSeqr::total    391700545                       (Unspecified)
system.caches.m_latencyHistSeqr::bucket_size           64                       (Unspecified)
system.caches.m_latencyHistSeqr::max_bucket          639                       (Unspecified)
system.caches.m_latencyHistSeqr::samples    391700545                       (Unspecified)
system.caches.m_latencyHistSeqr::mean        1.005735                       (Unspecified)
system.caches.m_latencyHistSeqr::gmean       1.000344                       (Unspecified)
system.caches.m_latencyHistSeqr::stdev       0.699942                       (Unspecified)
system.caches.m_latencyHistSeqr          |   391687914    100.00%    100.00% |       11593      0.00%    100.00% |         463      0.00%    100.00% |         211      0.00%    100.00% |         231      0.00%    100.00% |         128      0.00%    100.00% |           2      0.00%    100.00% |           3      0.00%    100.00% |           0      0.00%    100.00% |           0      0.00%    100.00% (Unspecified)
system.caches.m_latencyHistSeqr::total      391700545                       (Unspecified)
system.caches.m_hitLatencyHistSeqr::bucket_size            1                       (Unspecified)
system.caches.m_hitLatencyHistSeqr::max_bucket            9                       (Unspecified)
system.caches.m_hitLatencyHistSeqr::samples    391668618                       (Unspecified)
system.caches.m_hitLatencyHistSeqr::mean            1                       (Unspecified)
system.caches.m_hitLatencyHistSeqr::gmean            1                       (Unspecified)
system.caches.m_hitLatencyHistSeqr       |           0      0.00%      0.00% |   391668618    100.00%    100.00% |           0      0.00%    100.00% |           0      0.00%    100.00% |           0      0.00%    100.00% |           0      0.00%    100.00% |           0      0.00%    100.00% |           0      0.00%    100.00% |           0      0.00%    100.00% |           0      0.00%    100.00% (Unspecified)
system.caches.m_hitLatencyHistSeqr::total    391668618                       (Unspecified)
system.caches.m_missLatencyHistSeqr::bucket_size           64                       (Unspecified)
system.caches.m_missLatencyHistSeqr::max_bucket          639                       (Unspecified)
system.caches.m_missLatencyHistSeqr::samples        31927                       (Unspecified)
system.caches.m_missLatencyHistSeqr::mean    71.355436                       (Unspecified)
system.caches.m_missLatencyHistSeqr::gmean    67.671848                       (Unspecified)
system.caches.m_missLatencyHistSeqr::stdev    32.575662                       (Unspecified)
system.caches.m_missLatencyHistSeqr      |       19296     60.44%     60.44% |       11593     36.31%     96.75% |         463      1.45%     98.20% |         211      0.66%     98.86% |         231      0.72%     99.58% |         128      0.40%     99.98% |           2      0.01%     99.99% |           3      0.01%    100.00% |           0      0.00%    100.00% |           0      0.00%    100.00% (Unspecified)
system.caches.m_missLatencyHistSeqr::total        31927                       (Unspecified)
system.caches.L1Cache_Controller.Load    |    10600757      2.96%      2.96% |   263221726     73.56%     76.52% |    84016407     23.48%    100.00% |           0      0.00%    100.00% (Unspecified)
system.caches.L1Cache_Controller.Load::total    357838890                       (Unspecified)
system.caches.L1Cache_Controller.Store   |     1475068      4.36%      4.36% |    24695481     72.93%     77.29% |     7691106     22.71%    100.00% |           0      0.00%    100.00% (Unspecified)
system.caches.L1Cache_Controller.Store::total     33861655                       (Unspecified)
system.caches.L1Cache_Controller.Replacement |     2217912     23.23%     23.23% |     3990994     41.80%     65.04% |     3338005     34.96%    100.00% |           0      0.00%    100.00% (Unspecified)
system.caches.L1Cache_Controller.Replacement::total      9546911                       (Unspecified)
system.caches.L1Cache_Controller.FwdGetS |          13     46.43%     46.43% |          10     35.71%     82.14% |           5     17.86%    100.00% |           0      0.00%    100.00% (Unspecified)
system.caches.L1Cache_Controller.FwdGetS::total           28                       (Unspecified)
system.caches.L1Cache_Controller.FwdGetM |           8     50.00%     50.00% |           5     31.25%     81.25% |           3     18.75%    100.00% |           0      0.00%    100.00% (Unspecified)
system.caches.L1Cache_Controller.FwdGetM::total           16                       (Unspecified)
system.caches.L1Cache_Controller.Inv     |          17     43.59%     43.59% |          11     28.21%     71.79% |          11     28.21%    100.00% |           0      0.00%    100.00% (Unspecified)
system.caches.L1Cache_Controller.Inv::total           39                       (Unspecified)
system.caches.L1Cache_Controller.PutAck  |        6931     23.23%     23.23% |       12472     41.80%     65.03% |       10432     34.97%    100.00% |           0      0.00%    100.00% (Unspecified)
system.caches.L1Cache_Controller.PutAck::total        29835                       (Unspecified)
system.caches.L1Cache_Controller.DataDirNoAcks |        7371     23.12%     23.12% |       13314     41.76%     64.88% |       11198     35.12%    100.00% |           0      0.00%    100.00% (Unspecified)
system.caches.L1Cache_Controller.DataDirNoAcks::total        31883                       (Unspecified)
system.caches.L1Cache_Controller.DataOwner |           7     15.91%     15.91% |          16     36.36%     52.27% |          21     47.73%    100.00% |           0      0.00%    100.00% (Unspecified)
system.caches.L1Cache_Controller.DataOwner::total           44                       (Unspecified)
system.caches.L1Cache_Controller.InvAck  |           7     17.95%     17.95% |          20     51.28%     69.23% |          12     30.77%    100.00% |           0      0.00%    100.00% (Unspecified)
system.caches.L1Cache_Controller.InvAck::total           39                       (Unspecified)
system.caches.L1Cache_Controller.I.Load  |        6079     23.20%     23.20% |       11014     42.04%     65.24% |        9106     34.76%    100.00% |           0      0.00%    100.00% (Unspecified)
system.caches.L1Cache_Controller.I.Load::total        26199                       (Unspecified)
system.caches.L1Cache_Controller.I.Store |        1133     25.52%     25.52% |        1724     38.83%     64.35% |        1583     35.65%    100.00% |           0      0.00%    100.00% (Unspecified)
system.caches.L1Cache_Controller.I.Store::total         4440                       (Unspecified)
system.caches.L1Cache_Controller.IS_D.DataDirNoAcks |        6075     23.21%     23.21% |       11003     42.04%     65.26% |        9093     34.74%    100.00% |           0      0.00%    100.00% (Unspecified)
system.caches.L1Cache_Controller.IS_D.DataDirNoAcks::total        26171                       (Unspecified)
system.caches.L1Cache_Controller.IS_D.DataOwner |           4     14.29%     14.29% |          11     39.29%     53.57% |          13     46.43%    100.00% |           0      0.00%    100.00% (Unspecified)
system.caches.L1Cache_Controller.IS_D.DataOwner::total           28                       (Unspecified)
system.caches.L1Cache_Controller.IM_AD.DataDirNoAcks |        1130     25.54%     25.54% |        1719     38.86%     64.40% |        1575     35.60%    100.00% |           0      0.00%    100.00% (Unspecified)
system.caches.L1Cache_Controller.IM_AD.DataDirNoAcks::total         4424                       (Unspecified)
system.caches.L1Cache_Controller.IM_AD.DataOwner |           3     18.75%     18.75% |           5     31.25%     50.00% |           8     50.00%    100.00% |           0      0.00%    100.00% (Unspecified)
system.caches.L1Cache_Controller.IM_AD.DataOwner::total           16                       (Unspecified)
system.caches.L1Cache_Controller.IM_AD.InvAck |           1     25.00%     25.00% |           3     75.00%    100.00% |           0      0.00%    100.00% |           0      0.00%    100.00% (Unspecified)
system.caches.L1Cache_Controller.IM_AD.InvAck::total            4                       (Unspecified)
system.caches.L1Cache_Controller.S.Load  |     9465896      3.18%      3.18% |   221675003     74.52%     77.71% |    66310850     22.29%    100.00% |           0      0.00%    100.00% (Unspecified)
system.caches.L1Cache_Controller.S.Load::total    297451749                       (Unspecified)
system.caches.L1Cache_Controller.S.Store |         166     12.89%     12.89% |         592     45.96%     58.85% |         530     41.15%    100.00% |           0      0.00%    100.00% (Unspecified)
system.caches.L1Cache_Controller.S.Store::total         1288                       (Unspecified)
system.caches.L1Cache_Controller.S.Replacement |        5697     23.48%     23.48% |       10212     42.09%     65.57% |        8353     34.43%    100.00% |           0      0.00%    100.00% (Unspecified)
system.caches.L1Cache_Controller.S.Replacement::total        24262                       (Unspecified)
system.caches.L1Cache_Controller.S.Inv   |          17     43.59%     43.59% |          11     28.21%     71.79% |          11     28.21%    100.00% |           0      0.00%    100.00% (Unspecified)
system.caches.L1Cache_Controller.S.Inv::total           39                       (Unspecified)
system.caches.L1Cache_Controller.SM_AD.DataDirNoAcks |         166     12.89%     12.89% |         592     45.96%     58.85% |         530     41.15%    100.00% |           0      0.00%    100.00% (Unspecified)
system.caches.L1Cache_Controller.SM_AD.DataDirNoAcks::total         1288                       (Unspecified)
system.caches.L1Cache_Controller.SM_AD.InvAck |           6     17.14%     17.14% |          17     48.57%     65.71% |          12     34.29%    100.00% |           0      0.00%    100.00% (Unspecified)
system.caches.L1Cache_Controller.SM_AD.InvAck::total           35                       (Unspecified)
system.caches.L1Cache_Controller.M.Load  |     1128782      1.87%      1.87% |    41535709     68.81%     70.68% |    17696451     29.32%    100.00% |           0      0.00%    100.00% (Unspecified)
system.caches.L1Cache_Controller.M.Load::total     60360942                       (Unspecified)
system.caches.L1Cache_Controller.M.Store |     1473769      4.35%      4.35% |    24693165     72.94%     77.29% |     7688993     22.71%    100.00% |           0      0.00%    100.00% (Unspecified)
system.caches.L1Cache_Controller.M.Store::total     33855927                       (Unspecified)
system.caches.L1Cache_Controller.M.Replacement |        1234     22.14%     22.14% |        2260     40.55%     62.70% |        2079     37.30%    100.00% |           0      0.00%    100.00% (Unspecified)
system.caches.L1Cache_Controller.M.Replacement::total         5573                       (Unspecified)
system.caches.L1Cache_Controller.M.FwdGetS |          13     46.43%     46.43% |          10     35.71%     82.14% |           5     17.86%    100.00% |           0      0.00%    100.00% (Unspecified)
system.caches.L1Cache_Controller.M.FwdGetS::total           28                       (Unspecified)
system.caches.L1Cache_Controller.M.FwdGetM |           8     50.00%     50.00% |           5     31.25%     81.25% |           3     18.75%    100.00% |           0      0.00%    100.00% (Unspecified)
system.caches.L1Cache_Controller.M.FwdGetM::total           16                       (Unspecified)
system.caches.L1Cache_Controller.MI_A.Replacement |      393642     22.15%     22.15% |      720841     40.55%     62.70% |      663030     37.30%    100.00% |           0      0.00%    100.00% (Unspecified)
system.caches.L1Cache_Controller.MI_A.Replacement::total      1777513                       (Unspecified)
system.caches.L1Cache_Controller.MI_A.PutAck |        1234     22.14%     22.14% |        2260     40.55%     62.70% |        2079     37.30%    100.00% |           0      0.00%    100.00% (Unspecified)
system.caches.L1Cache_Controller.MI_A.PutAck::total         5573                       (Unspecified)
system.caches.L1Cache_Controller.SI_A.Replacement |     1817339     23.48%     23.48% |     3257681     42.09%     65.57% |     2664543     34.43%    100.00% |           0      0.00%    100.00% (Unspecified)
system.caches.L1Cache_Controller.SI_A.Replacement::total      7739563                       (Unspecified)
system.caches.L1Cache_Controller.SI_A.PutAck |        5697     23.48%     23.48% |       10212     42.09%     65.57% |        8353     34.43%    100.00% |           0      0.00%    100.00% (Unspecified)
system.caches.L1Cache_Controller.SI_A.PutAck::total        24262                       (Unspecified)
system.caches.Directory_Controller.GetS         62134      0.00%      0.00% (Unspecified)
system.caches.Directory_Controller.GetM          5728      0.00%      0.00% (Unspecified)
system.caches.Directory_Controller.PutSNotLast         9690      0.00%      0.00% (Unspecified)
system.caches.Directory_Controller.PutSLast        14572      0.00%      0.00% (Unspecified)
system.caches.Directory_Controller.PutMOwner         5573      0.00%      0.00% (Unspecified)
system.caches.Directory_Controller.Data            28      0.00%      0.00% (Unspecified)
system.caches.Directory_Controller.MemData        31883      0.00%      0.00% (Unspecified)
system.caches.Directory_Controller.MemAck         5601      0.00%      0.00% (Unspecified)
system.caches.Directory_Controller.I.GetS        16327      0.00%      0.00% (Unspecified)
system.caches.Directory_Controller.I.GetM         4420      0.00%      0.00% (Unspecified)
system.caches.Directory_Controller.S.GetS         9844      0.00%      0.00% (Unspecified)
system.caches.Directory_Controller.S.GetM         1292      0.00%      0.00% (Unspecified)
system.caches.Directory_Controller.S.PutSNotLast         9679      0.00%      0.00% (Unspecified)
system.caches.Directory_Controller.S.PutSLast        14572      0.00%      0.00% (Unspecified)
system.caches.Directory_Controller.M.GetS           28      0.00%      0.00% (Unspecified)
system.caches.Directory_Controller.M.GetM           16      0.00%      0.00% (Unspecified)
system.caches.Directory_Controller.M.PutMOwner         5573      0.00%      0.00% (Unspecified)
system.caches.Directory_Controller.S_D.Data           28      0.00%      0.00% (Unspecified)
system.caches.Directory_Controller.S_m.GetS        35935      0.00%      0.00% (Unspecified)
system.caches.Directory_Controller.S_m.PutSNotLast           11      0.00%      0.00% (Unspecified)
system.caches.Directory_Controller.S_m.MemData        26171      0.00%      0.00% (Unspecified)
system.caches.Directory_Controller.M_m.MemData         5712      0.00%      0.00% (Unspecified)
system.caches.Directory_Controller.MI_m.MemAck         5573      0.00%      0.00% (Unspecified)
system.caches.Directory_Controller.SS_m.MemAck           28      0.00%      0.00% (Unspecified)
system.caches.MachineType.L1Cache.miss_mach_latency_hist_seqr::bucket_size            4                       (Unspecified)
system.caches.MachineType.L1Cache.miss_mach_latency_hist_seqr::max_bucket           39                       (Unspecified)
system.caches.MachineType.L1Cache.miss_mach_latency_hist_seqr::samples           44                       (Unspecified)
system.caches.MachineType.L1Cache.miss_mach_latency_hist_seqr::mean    20.340909                       (Unspecified)
system.caches.MachineType.L1Cache.miss_mach_latency_hist_seqr::gmean    19.759169                       (Unspecified)
system.caches.MachineType.L1Cache.miss_mach_latency_hist_seqr::stdev     4.992754                       (Unspecified)
system.caches.MachineType.L1Cache.miss_mach_latency_hist_seqr |           0      0.00%      0.00% |           0      0.00%      0.00% |           0      0.00%      0.00% |           0      0.00%      0.00% |          25     56.82%     56.82% |           0      0.00%     56.82% |          19     43.18%    100.00% |           0      0.00%    100.00% |           0      0.00%    100.00% |           0      0.00%    100.00% (Unspecified)
system.caches.MachineType.L1Cache.miss_mach_latency_hist_seqr::total           44                       (Unspecified)
system.caches.MachineType.L1Cache.incomplete_times_seqr           44                       (Unspecified)
system.caches.MachineType.Directory.miss_mach_latency_hist_seqr::bucket_size           64                      
system.caches.MachineType.Directory.miss_mach_latency_hist_seqr::max_bucket          639                      
system.caches.MachineType.Directory.miss_mach_latency_hist_seqr::samples        31883                      
system.caches.MachineType.Directory.miss_mach_latency_hist_seqr::mean    71.425838                      
system.caches.MachineType.Directory.miss_mach_latency_hist_seqr::gmean    67.786914                      
system.caches.MachineType.Directory.miss_mach_latency_hist_seqr::stdev    32.542403                      
system.caches.MachineType.Directory.miss_mach_latency_hist_seqr |       19252     60.38%     60.38% |       11593     36.36%     96.74% |         463      1.45%     98.20% |         211      0.66%     98.86% |         231      0.72%     99.58% |         128      0.40%     99.98% |           2      0.01%     99.99% |           3      0.01%    100.00% |           0      0.00%    100.00% |           0      0.00%    100.00% (Unspecified)
system.caches.MachineType.Directory.miss_mach_latency_hist_seqr::total        31883                      
system.caches.MachineType.Directory.miss_latency_hist_seqr.issue_to_initial_request::bucket_size            1                      
system.caches.MachineType.Directory.miss_latency_hist_seqr.issue_to_initial_request::max_bucket            9                      
system.caches.MachineType.Directory.miss_latency_hist_seqr.issue_to_initial_request::samples            1                      
system.caches.MachineType.Directory.miss_latency_hist_seqr.issue_to_initial_request::stdev          nan                      
system.caches.MachineType.Directory.miss_latency_hist_seqr.issue_to_initial_request |           1    100.00%    100.00% |           0      0.00%    100.00% |           0      0.00%    100.00% |           0      0.00%    100.00% |           0      0.00%    100.00% |           0      0.00%    100.00% |           0      0.00%    100.00% |           0      0.00%    100.00% |           0      0.00%    100.00% |           0      0.00%    100.00% (Unspecified)
system.caches.MachineType.Directory.miss_latency_hist_seqr.issue_to_initial_request::total            1                      
system.caches.MachineType.Directory.miss_latency_hist_seqr.initial_to_forward::bucket_size            1                      
system.caches.MachineType.Directory.miss_latency_hist_seqr.initial_to_forward::max_bucket            9                      
system.caches.MachineType.Directory.miss_latency_hist_seqr.initial_to_forward::samples            1                      
system.caches.MachineType.Directory.miss_latency_hist_seqr.initial_to_forward::stdev          nan                      
system.caches.MachineType.Directory.miss_latency_hist_seqr.initial_to_forward |           1    100.00%    100.00% |           0      0.00%    100.00% |           0      0.00%    100.00% |           0      0.00%    100.00% |           0      0.00%    100.00% |           0      0.00%    100.00% |           0      0.00%    100.00% |           0      0.00%    100.00% |           0      0.00%    100.00% |           0      0.00%    100.00% (Unspecified)
system.caches.MachineType.Directory.miss_latency_hist_seqr.initial_to_forward::total            1                      
system.caches.MachineType.Directory.miss_latency_hist_seqr.forward_to_first_response::bucket_size            1                      
system.caches.MachineType.Directory.miss_latency_hist_seqr.forward_to_first_response::max_bucket            9                      
system.caches.MachineType.Directory.miss_latency_hist_seqr.forward_to_first_response::samples            1                      
system.caches.MachineType.Directory.miss_latency_hist_seqr.forward_to_first_response::stdev          nan                      
system.caches.MachineType.Directory.miss_latency_hist_seqr.forward_to_first_response |           1    100.00%    100.00% |           0      0.00%    100.00% |           0      0.00%    100.00% |           0      0.00%    100.00% |           0      0.00%    100.00% |           0      0.00%    100.00% |           0      0.00%    100.00% |           0      0.00%    100.00% |           0      0.00%    100.00% |           0      0.00%    100.00% (Unspecified)
system.caches.MachineType.Directory.miss_latency_hist_seqr.forward_to_first_response::total            1                      
system.caches.MachineType.Directory.miss_latency_hist_seqr.first_response_to_completion::bucket_size            8                      
system.caches.MachineType.Directory.miss_latency_hist_seqr.first_response_to_completion::max_bucket           79                      
system.caches.MachineType.Directory.miss_latency_hist_seqr.first_response_to_completion::samples            1                      
system.caches.MachineType.Directory.miss_latency_hist_seqr.first_response_to_completion::mean           73                      
system.caches.MachineType.Directory.miss_latency_hist_seqr.first_response_to_completion::gmean    73.000000                      
system.caches.MachineType.Directory.miss_latency_hist_seqr.first_response_to_completion::stdev          nan                      
system.caches.MachineType.Directory.miss_latency_hist_seqr.first_response_to_completion |           0      0.00%      0.00% |           0      0.00%      0.00% |           0      0.00%      0.00% |           0      0.00%      0.00% |           0      0.00%      0.00% |           0      0.00%      0.00% |           0      0.00%      0.00% |           0      0.00%      0.00% |           0      0.00%      0.00% |           1    100.00%    100.00% (Unspecified)
system.caches.MachineType.Directory.miss_latency_hist_seqr.first_response_to_completion::total            1                      
system.caches.MachineType.Directory.incomplete_times_seqr        31882                       (Unspecified)
system.caches.RequestType.LD.latency_hist_seqr::bucket_size           64                       (Unspecified)
system.caches.RequestType.LD.latency_hist_seqr::max_bucket          639                       (Unspecified)
system.caches.RequestType.LD.latency_hist_seqr::samples     63254738                       (Unspecified)
system.caches.RequestType.LD.latency_hist_seqr::mean     1.014252                       (Unspecified)
system.caches.RequestType.LD.latency_hist_seqr::gmean     1.000851                       (Unspecified)
system.caches.RequestType.LD.latency_hist_seqr::stdev     1.106964                       (Unspecified)
system.caches.RequestType.LD.latency_hist_seqr |    63249156     99.99%     99.99% |        5178      0.01%    100.00% |         169      0.00%    100.00% |          92      0.00%    100.00% |          85      0.00%    100.00% |          57      0.00%    100.00% |           0      0.00%    100.00% |           1      0.00%    100.00% |           0      0.00%    100.00% |           0      0.00%    100.00% (Unspecified)
system.caches.RequestType.LD.latency_hist_seqr::total     63254738                       (Unspecified)
system.caches.RequestType.LD.hit_latency_hist_seqr::bucket_size            1                       (Unspecified)
system.caches.RequestType.LD.hit_latency_hist_seqr::max_bucket            9                       (Unspecified)
system.caches.RequestType.LD.hit_latency_hist_seqr::samples     63241966                       (Unspecified)
system.caches.RequestType.LD.hit_latency_hist_seqr::mean            1                       (Unspecified)
system.caches.RequestType.LD.hit_latency_hist_seqr::gmean            1                       (Unspecified)
system.caches.RequestType.LD.hit_latency_hist_seqr |           0      0.00%      0.00% |    63241966    100.00%    100.00% |           0      0.00%    100.00% |           0      0.00%    100.00% |           0      0.00%    100.00% |           0      0.00%    100.00% |           0      0.00%    100.00% |           0      0.00%    100.00% |           0      0.00%    100.00% |           0      0.00%    100.00% (Unspecified)
system.caches.RequestType.LD.hit_latency_hist_seqr::total     63241966                       (Unspecified)
system.caches.RequestType.LD.miss_latency_hist_seqr::bucket_size           64                       (Unspecified)
system.caches.RequestType.LD.miss_latency_hist_seqr::max_bucket          639                       (Unspecified)
system.caches.RequestType.LD.miss_latency_hist_seqr::samples        12772                       (Unspecified)
system.caches.RequestType.LD.miss_latency_hist_seqr::mean    71.585578                       (Unspecified)
system.caches.RequestType.LD.miss_latency_hist_seqr::gmean    67.547335                       (Unspecified)
system.caches.RequestType.LD.miss_latency_hist_seqr::stdev    32.977933                       (Unspecified)
system.caches.RequestType.LD.miss_latency_hist_seqr |        7190     56.30%     56.30% |        5178     40.54%     96.84% |         169      1.32%     98.16% |          92      0.72%     98.88% |          85      0.67%     99.55% |          57      0.45%     99.99% |           0      0.00%     99.99% |           1      0.01%    100.00% |           0      0.00%    100.00% |           0      0.00%    100.00% (Unspecified)
system.caches.RequestType.LD.miss_latency_hist_seqr::total        12772                       (Unspecified)
system.caches.RequestType.ST.latency_hist_seqr::bucket_size           64                       (Unspecified)
system.caches.RequestType.ST.latency_hist_seqr::max_bucket          639                       (Unspecified)
system.caches.RequestType.ST.latency_hist_seqr::samples     31165335                       (Unspecified)
system.caches.RequestType.ST.latency_hist_seqr::mean     1.012674                       (Unspecified)
system.caches.RequestType.ST.latency_hist_seqr::gmean     1.000754                       (Unspecified)
system.caches.RequestType.ST.latency_hist_seqr::stdev     1.053626                       (Unspecified)
system.caches.RequestType.ST.latency_hist_seqr |    31162326     99.99%     99.99% |        2770      0.01%    100.00% |         144      0.00%    100.00% |          33      0.00%    100.00% |          47      0.00%    100.00% |          12      0.00%    100.00% |           1      0.00%    100.00% |           2      0.00%    100.00% |           0      0.00%    100.00% |           0      0.00%    100.00% (Unspecified)
system.caches.RequestType.ST.latency_hist_seqr::total     31165335                       (Unspecified)
system.caches.RequestType.ST.hit_latency_hist_seqr::bucket_size            1                       (Unspecified)
system.caches.RequestType.ST.hit_latency_hist_seqr::max_bucket            9                       (Unspecified)
system.caches.RequestType.ST.hit_latency_hist_seqr::samples     31159751                       (Unspecified)
system.caches.RequestType.ST.hit_latency_hist_seqr::mean            1                       (Unspecified)
system.caches.RequestType.ST.hit_latency_hist_seqr::gmean            1                       (Unspecified)
system.caches.RequestType.ST.hit_latency_hist_seqr |           0      0.00%      0.00% |    31159751    100.00%    100.00% |           0      0.00%    100.00% |           0      0.00%    100.00% |           0      0.00%    100.00% |           0      0.00%    100.00% |           0      0.00%    100.00% |           0      0.00%    100.00% |           0      0.00%    100.00% |           0      0.00%    100.00% (Unspecified)
system.caches.RequestType.ST.hit_latency_hist_seqr::total     31159751                       (Unspecified)
system.caches.RequestType.ST.miss_latency_hist_seqr::bucket_size           64                       (Unspecified)
system.caches.RequestType.ST.miss_latency_hist_seqr::max_bucket          639                       (Unspecified)
system.caches.RequestType.ST.miss_latency_hist_seqr::samples         5584                       (Unspecified)
system.caches.RequestType.ST.miss_latency_hist_seqr::mean    71.735852                       (Unspecified)
system.caches.RequestType.ST.miss_latency_hist_seqr::gmean    67.076351                       (Unspecified)
system.caches.RequestType.ST.miss_latency_hist_seqr::stdev    34.545215                       (Unspecified)
system.caches.RequestType.ST.miss_latency_hist_seqr |        2575     46.11%     46.11% |        2770     49.61%     95.72% |         144      2.58%     98.30% |          33      0.59%     98.89% |          47      0.84%     99.73% |          12      0.21%     99.95% |           1      0.02%     99.96% |           2      0.04%    100.00% |           0      0.00%    100.00% |           0      0.00%    100.00% (Unspecified)
system.caches.RequestType.ST.miss_latency_hist_seqr::total         5584                       (Unspecified)
system.caches.RequestType.IFETCH.latency_hist_seqr::bucket_size           64                       (Unspecified)
system.caches.RequestType.IFETCH.latency_hist_seqr::max_bucket          639                       (Unspecified)
system.caches.RequestType.IFETCH.latency_hist_seqr::samples    294584152                       (Unspecified)
system.caches.RequestType.IFETCH.latency_hist_seqr::mean     1.003195                       (Unspecified)
system.caches.RequestType.IFETCH.latency_hist_seqr::gmean     1.000192                       (Unspecified)
system.caches.RequestType.IFETCH.latency_hist_seqr::stdev     0.517738                       (Unspecified)
system.caches.RequestType.IFETCH.latency_hist_seqr |   294580144    100.00%    100.00% |        3617      0.00%    100.00% |         150      0.00%    100.00% |          86      0.00%    100.00% |          96      0.00%    100.00% |          58      0.00%    100.00% |           1      0.00%    100.00% |           0      0.00%    100.00% |           0      0.00%    100.00% |           0      0.00%    100.00% (Unspecified)
system.caches.RequestType.IFETCH.latency_hist_seqr::total    294584152                       (Unspecified)
system.caches.RequestType.IFETCH.hit_latency_hist_seqr::bucket_size            1                       (Unspecified)
system.caches.RequestType.IFETCH.hit_latency_hist_seqr::max_bucket            9                       (Unspecified)
system.caches.RequestType.IFETCH.hit_latency_hist_seqr::samples    294570725                       (Unspecified)
system.caches.RequestType.IFETCH.hit_latency_hist_seqr::mean            1                       (Unspecified)
system.caches.RequestType.IFETCH.hit_latency_hist_seqr::gmean            1                       (Unspecified)
system.caches.RequestType.IFETCH.hit_latency_hist_seqr |           0      0.00%      0.00% |   294570725    100.00%    100.00% |           0      0.00%    100.00% |           0      0.00%    100.00% |           0      0.00%    100.00% |           0      0.00%    100.00% |           0      0.00%    100.00% |           0      0.00%    100.00% |           0      0.00%    100.00% |           0      0.00%    100.00% (Unspecified)
system.caches.RequestType.IFETCH.hit_latency_hist_seqr::total    294570725                       (Unspecified)
system.caches.RequestType.IFETCH.miss_latency_hist_seqr::bucket_size           64                       (Unspecified)
system.caches.RequestType.IFETCH.miss_latency_hist_seqr::max_bucket          639                       (Unspecified)
system.caches.RequestType.IFETCH.miss_latency_hist_seqr::samples        13427                       (Unspecified)
system.caches.RequestType.IFETCH.miss_latency_hist_seqr::mean    71.090117                       (Unspecified)
system.caches.RequestType.IFETCH.miss_latency_hist_seqr::gmean    68.218403                       (Unspecified)
system.caches.RequestType.IFETCH.miss_latency_hist_seqr::stdev    31.123231                       (Unspecified)
system.caches.RequestType.IFETCH.miss_latency_hist_seqr |        9419     70.15%     70.15% |        3617     26.94%     97.09% |         150      1.12%     98.21% |          86      0.64%     98.85% |          96      0.71%     99.56% |          58      0.43%     99.99% |           1      0.01%    100.00% |           0      0.00%    100.00% |           0      0.00%    100.00% |           0      0.00%    100.00% (Unspecified)
system.caches.RequestType.IFETCH.miss_latency_hist_seqr::total        13427                       (Unspecified)
system.caches.RequestType.RMW_Read.latency_hist_seqr::bucket_size           32                       (Unspecified)
system.caches.RequestType.RMW_Read.latency_hist_seqr::max_bucket          319                       (Unspecified)
system.caches.RequestType.RMW_Read.latency_hist_seqr::samples      2433726                       (Unspecified)
system.caches.RequestType.RMW_Read.latency_hist_seqr::mean     1.002136                       (Unspecified)
system.caches.RequestType.RMW_Read.latency_hist_seqr::gmean     1.000134                       (Unspecified)
system.caches.RequestType.RMW_Read.latency_hist_seqr::stdev     0.472761                       (Unspecified)
system.caches.RequestType.RMW_Read.latency_hist_seqr |     2433652    100.00%    100.00% |          56      0.00%    100.00% |          15      0.00%    100.00% |           0      0.00%    100.00% |           0      0.00%    100.00% |           0      0.00%    100.00% |           0      0.00%    100.00% |           0      0.00%    100.00% |           0      0.00%    100.00% |           3      0.00%    100.00% (Unspecified)
system.caches.RequestType.RMW_Read.latency_hist_seqr::total      2433726                       (Unspecified)
system.caches.RequestType.RMW_Read.hit_latency_hist_seqr::bucket_size            1                       (Unspecified)
system.caches.RequestType.RMW_Read.hit_latency_hist_seqr::max_bucket            9                       (Unspecified)
system.caches.RequestType.RMW_Read.hit_latency_hist_seqr::samples      2433645                       (Unspecified)
system.caches.RequestType.RMW_Read.hit_latency_hist_seqr::mean            1                       (Unspecified)
system.caches.RequestType.RMW_Read.hit_latency_hist_seqr::gmean            1                       (Unspecified)
system.caches.RequestType.RMW_Read.hit_latency_hist_seqr |           0      0.00%      0.00% |     2433645    100.00%    100.00% |           0      0.00%    100.00% |           0      0.00%    100.00% |           0      0.00%    100.00% |           0      0.00%    100.00% |           0      0.00%    100.00% |           0      0.00%    100.00% |           0      0.00%    100.00% |           0      0.00%    100.00% (Unspecified)
system.caches.RequestType.RMW_Read.hit_latency_hist_seqr::total      2433645                       (Unspecified)
system.caches.RequestType.RMW_Read.miss_latency_hist_seqr::bucket_size           32                       (Unspecified)
system.caches.RequestType.RMW_Read.miss_latency_hist_seqr::max_bucket          319                       (Unspecified)
system.caches.RequestType.RMW_Read.miss_latency_hist_seqr::samples           81                       (Unspecified)
system.caches.RequestType.RMW_Read.miss_latency_hist_seqr::mean    65.185185                       (Unspecified)
system.caches.RequestType.RMW_Read.miss_latency_hist_seqr::gmean    55.961627                       (Unspecified)
system.caches.RequestType.RMW_Read.miss_latency_hist_seqr::stdev    51.266000                       (Unspecified)
system.caches.RequestType.RMW_Read.miss_latency_hist_seqr |           7      8.64%      8.64% |          56     69.14%     77.78% |          15     18.52%     96.30% |           0      0.00%     96.30% |           0      0.00%     96.30% |           0      0.00%     96.30% |           0      0.00%     96.30% |           0      0.00%     96.30% |           0      0.00%     96.30% |           3      3.70%    100.00% (Unspecified)
system.caches.RequestType.RMW_Read.miss_latency_hist_seqr::total           81                       (Unspecified)
system.caches.RequestType.Locked_RMW_Read.latency_hist_seqr::bucket_size           64                       (Unspecified)
system.caches.RequestType.Locked_RMW_Read.latency_hist_seqr::max_bucket          639                       (Unspecified)
system.caches.RequestType.Locked_RMW_Read.latency_hist_seqr::samples       131297                       (Unspecified)
system.caches.RequestType.Locked_RMW_Read.latency_hist_seqr::mean     1.026132                       (Unspecified)
system.caches.RequestType.Locked_RMW_Read.latency_hist_seqr::gmean     1.001874                       (Unspecified)
system.caches.RequestType.Locked_RMW_Read.latency_hist_seqr::stdev     1.453330                       (Unspecified)
system.caches.RequestType.Locked_RMW_Read.latency_hist_seqr |      131283     99.99%     99.99% |          13      0.01%    100.00% |           0      0.00%    100.00% |           0      0.00%    100.00% |           0      0.00%    100.00% |           1      0.00%    100.00% |           0      0.00%    100.00% |           0      0.00%    100.00% |           0      0.00%    100.00% |           0      0.00%    100.00% (Unspecified)
system.caches.RequestType.Locked_RMW_Read.latency_hist_seqr::total       131297                       (Unspecified)
system.caches.RequestType.Locked_RMW_Read.hit_latency_hist_seqr::bucket_size            1                       (Unspecified)
system.caches.RequestType.Locked_RMW_Read.hit_latency_hist_seqr::max_bucket            9                       (Unspecified)
system.caches.RequestType.Locked_RMW_Read.hit_latency_hist_seqr::samples       131234                       (Unspecified)
system.caches.RequestType.Locked_RMW_Read.hit_latency_hist_seqr::mean            1                       (Unspecified)
system.caches.RequestType.Locked_RMW_Read.hit_latency_hist_seqr::gmean            1                       (Unspecified)
system.caches.RequestType.Locked_RMW_Read.hit_latency_hist_seqr |           0      0.00%      0.00% |      131234    100.00%    100.00% |           0      0.00%    100.00% |           0      0.00%    100.00% |           0      0.00%    100.00% |           0      0.00%    100.00% |           0      0.00%    100.00% |           0      0.00%    100.00% |           0      0.00%    100.00% |           0      0.00%    100.00% (Unspecified)
system.caches.RequestType.Locked_RMW_Read.hit_latency_hist_seqr::total       131234                       (Unspecified)
system.caches.RequestType.Locked_RMW_Read.miss_latency_hist_seqr::bucket_size           64                       (Unspecified)
system.caches.RequestType.Locked_RMW_Read.miss_latency_hist_seqr::max_bucket          639                       (Unspecified)
system.caches.RequestType.Locked_RMW_Read.miss_latency_hist_seqr::samples           63                       (Unspecified)
system.caches.RequestType.Locked_RMW_Read.miss_latency_hist_seqr::mean    55.460317                       (Unspecified)
system.caches.RequestType.Locked_RMW_Read.miss_latency_hist_seqr::gmean    49.467972                       (Unspecified)
system.caches.RequestType.Locked_RMW_Read.miss_latency_hist_seqr::stdev    38.217470                       (Unspecified)
system.caches.RequestType.Locked_RMW_Read.miss_latency_hist_seqr |          49     77.78%     77.78% |          13     20.63%     98.41% |           0      0.00%     98.41% |           0      0.00%     98.41% |           0      0.00%     98.41% |           1      1.59%    100.00% |           0      0.00%    100.00% |           0      0.00%    100.00% |           0      0.00%    100.00% |           0      0.00%    100.00% (Unspecified)
system.caches.RequestType.Locked_RMW_Read.miss_latency_hist_seqr::total           63                       (Unspecified)
system.caches.RequestType.Locked_RMW_Write.latency_hist_seqr::bucket_size            1                       (Unspecified)
system.caches.RequestType.Locked_RMW_Write.latency_hist_seqr::max_bucket            9                       (Unspecified)
system.caches.RequestType.Locked_RMW_Write.latency_hist_seqr::samples       131297                       (Unspecified)
system.caches.RequestType.Locked_RMW_Write.latency_hist_seqr::mean            1                       (Unspecified)
system.caches.RequestType.Locked_RMW_Write.latency_hist_seqr::gmean            1                       (Unspecified)
system.caches.RequestType.Locked_RMW_Write.latency_hist_seqr |           0      0.00%      0.00% |      131297    100.00%    100.00% |           0      0.00%    100.00% |           0      0.00%    100.00% |           0      0.00%    100.00% |           0      0.00%    100.00% |           0      0.00%    100.00% |           0      0.00%    100.00% |           0      0.00%    100.00% |           0      0.00%    100.00% (Unspecified)
system.caches.RequestType.Locked_RMW_Write.latency_hist_seqr::total       131297                       (Unspecified)
system.caches.RequestType.Locked_RMW_Write.hit_latency_hist_seqr::bucket_size            1                       (Unspecified)
system.caches.RequestType.Locked_RMW_Write.hit_latency_hist_seqr::max_bucket            9                       (Unspecified)
system.caches.RequestType.Locked_RMW_Write.hit_latency_hist_seqr::samples       131297                       (Unspecified)
system.caches.RequestType.Locked_RMW_Write.hit_latency_hist_seqr::mean            1                       (Unspecified)
system.caches.RequestType.Locked_RMW_Write.hit_latency_hist_seqr::gmean            1                       (Unspecified)
system.caches.RequestType.Locked_RMW_Write.hit_latency_hist_seqr |           0      0.00%      0.00% |      131297    100.00%    100.00% |           0      0.00%    100.00% |           0      0.00%    100.00% |           0      0.00%    100.00% |           0      0.00%    100.00% |           0      0.00%    100.00% |           0      0.00%    100.00% |           0      0.00%    100.00% |           0      0.00%    100.00% (Unspecified)
system.caches.RequestType.Locked_RMW_Write.hit_latency_hist_seqr::total       131297                       (Unspecified)
system.caches.RequestTypeMachineType.LD.L1Cache.miss_type_mach_latency_hist_seqr::bucket_size            4                       (Unspecified)
system.caches.RequestTypeMachineType.LD.L1Cache.miss_type_mach_latency_hist_seqr::max_bucket           39                       (Unspecified)
system.caches.RequestTypeMachineType.LD.L1Cache.miss_type_mach_latency_hist_seqr::samples           28                       (Unspecified)
system.caches.RequestTypeMachineType.LD.L1Cache.miss_type_mach_latency_hist_seqr::mean    21.750000                       (Unspecified)
system.caches.RequestTypeMachineType.LD.L1Cache.miss_type_mach_latency_hist_seqr::gmean    21.161573                       (Unspecified)
system.caches.RequestTypeMachineType.LD.L1Cache.miss_type_mach_latency_hist_seqr::stdev     5.000926                       (Unspecified)
system.caches.RequestTypeMachineType.LD.L1Cache.miss_type_mach_latency_hist_seqr |           0      0.00%      0.00% |           0      0.00%      0.00% |           0      0.00%      0.00% |           0      0.00%      0.00% |          12     42.86%     42.86% |           0      0.00%     42.86% |          16     57.14%    100.00% |           0      0.00%    100.00% |           0      0.00%    100.00% |           0      0.00%    100.00% (Unspecified)
system.caches.RequestTypeMachineType.LD.L1Cache.miss_type_mach_latency_hist_seqr::total           28                       (Unspecified)
system.caches.RequestTypeMachineType.LD.Directory.miss_type_mach_latency_hist_seqr::bucket_size           64                       (Unspecified)
system.caches.RequestTypeMachineType.LD.Directory.miss_type_mach_latency_hist_seqr::max_bucket          639                       (Unspecified)
system.caches.RequestTypeMachineType.LD.Directory.miss_type_mach_latency_hist_seqr::samples        12744                       (Unspecified)
system.caches.RequestTypeMachineType.LD.Directory.miss_type_mach_latency_hist_seqr::mean    71.695072                       (Unspecified)
system.caches.RequestTypeMachineType.LD.Directory.miss_type_mach_latency_hist_seqr::gmean    67.719805                       (Unspecified)
system.caches.RequestTypeMachineType.LD.Directory.miss_type_mach_latency_hist_seqr::stdev    32.930405                       (Unspecified)
system.caches.RequestTypeMachineType.LD.Directory.miss_type_mach_latency_hist_seqr |        7162     56.20%     56.20% |        5178     40.63%     96.83% |         169      1.33%     98.16% |          92      0.72%     98.88% |          85      0.67%     99.54% |          57      0.45%     99.99% |           0      0.00%     99.99% |           1      0.01%    100.00% |           0      0.00%    100.00% |           0      0.00%    100.00% (Unspecified)
system.caches.RequestTypeMachineType.LD.Directory.miss_type_mach_latency_hist_seqr::total        12744                       (Unspecified)
system.caches.RequestTypeMachineType.ST.L1Cache.miss_type_mach_latency_hist_seqr::bucket_size            4                       (Unspecified)
system.caches.RequestTypeMachineType.ST.L1Cache.miss_type_mach_latency_hist_seqr::max_bucket           39                       (Unspecified)
system.caches.RequestTypeMachineType.ST.L1Cache.miss_type_mach_latency_hist_seqr::samples           10                       (Unspecified)
system.caches.RequestTypeMachineType.ST.L1Cache.miss_type_mach_latency_hist_seqr::mean           17                       (Unspecified)
system.caches.RequestTypeMachineType.ST.L1Cache.miss_type_mach_latency_hist_seqr::gmean    16.795979                       (Unspecified)
system.caches.RequestTypeMachineType.ST.L1Cache.miss_type_mach_latency_hist_seqr::stdev     3.162278                       (Unspecified)
system.caches.RequestTypeMachineType.ST.L1Cache.miss_type_mach_latency_hist_seqr |           0      0.00%      0.00% |           0      0.00%      0.00% |           0      0.00%      0.00% |           0      0.00%      0.00% |           9     90.00%     90.00% |           0      0.00%     90.00% |           1     10.00%    100.00% |           0      0.00%    100.00% |           0      0.00%    100.00% |           0      0.00%    100.00% (Unspecified)
system.caches.RequestTypeMachineType.ST.L1Cache.miss_type_mach_latency_hist_seqr::total           10                       (Unspecified)
system.caches.RequestTypeMachineType.ST.Directory.miss_type_mach_latency_hist_seqr::bucket_size           64                       (Unspecified)
system.caches.RequestTypeMachineType.ST.Directory.miss_type_mach_latency_hist_seqr::max_bucket          639                       (Unspecified)
system.caches.RequestTypeMachineType.ST.Directory.miss_type_mach_latency_hist_seqr::samples         5574                       (Unspecified)
system.caches.RequestTypeMachineType.ST.Directory.miss_type_mach_latency_hist_seqr::mean    71.834051                       (Unspecified)
system.caches.RequestTypeMachineType.ST.Directory.miss_type_mach_latency_hist_seqr::gmean    67.243189                       (Unspecified)
system.caches.RequestTypeMachineType.ST.Directory.miss_type_mach_latency_hist_seqr::stdev    34.497993                       (Unspecified)
system.caches.RequestTypeMachineType.ST.Directory.miss_type_mach_latency_hist_seqr |        2565     46.02%     46.02% |        2770     49.70%     95.71% |         144      2.58%     98.30% |          33      0.59%     98.89% |          47      0.84%     99.73% |          12      0.22%     99.95% |           1      0.02%     99.96% |           2      0.04%    100.00% |           0      0.00%    100.00% |           0      0.00%    100.00% (Unspecified)
system.caches.RequestTypeMachineType.ST.Directory.miss_type_mach_latency_hist_seqr::total         5574                       (Unspecified)
system.caches.RequestTypeMachineType.IFETCH.Directory.miss_type_mach_latency_hist_seqr::bucket_size           64                       (Unspecified)
system.caches.RequestTypeMachineType.IFETCH.Directory.miss_type_mach_latency_hist_seqr::max_bucket          639                       (Unspecified)
system.caches.RequestTypeMachineType.IFETCH.Directory.miss_type_mach_latency_hist_seqr::samples        13427                       (Unspecified)
system.caches.RequestTypeMachineType.IFETCH.Directory.miss_type_mach_latency_hist_seqr::mean    71.090117                       (Unspecified)
system.caches.RequestTypeMachineType.IFETCH.Directory.miss_type_mach_latency_hist_seqr::gmean    68.218403                       (Unspecified)
system.caches.RequestTypeMachineType.IFETCH.Directory.miss_type_mach_latency_hist_seqr::stdev    31.123231                       (Unspecified)
system.caches.RequestTypeMachineType.IFETCH.Directory.miss_type_mach_latency_hist_seqr |        9419     70.15%     70.15% |        3617     26.94%     97.09% |         150      1.12%     98.21% |          86      0.64%     98.85% |          96      0.71%     99.56% |          58      0.43%     99.99% |           1      0.01%    100.00% |           0      0.00%    100.00% |           0      0.00%    100.00% |           0      0.00%    100.00% (Unspecified)
system.caches.RequestTypeMachineType.IFETCH.Directory.miss_type_mach_latency_hist_seqr::total        13427                       (Unspecified)
system.caches.RequestTypeMachineType.RMW_Read.L1Cache.miss_type_mach_latency_hist_seqr::bucket_size            4                       (Unspecified)
system.caches.RequestTypeMachineType.RMW_Read.L1Cache.miss_type_mach_latency_hist_seqr::max_bucket           39                       (Unspecified)
system.caches.RequestTypeMachineType.RMW_Read.L1Cache.miss_type_mach_latency_hist_seqr::samples            3                       (Unspecified)
system.caches.RequestTypeMachineType.RMW_Read.L1Cache.miss_type_mach_latency_hist_seqr::mean    19.333333                       (Unspecified)
system.caches.RequestTypeMachineType.RMW_Read.L1Cache.miss_type_mach_latency_hist_seqr::gmean    18.810678                       (Unspecified)
system.caches.RequestTypeMachineType.RMW_Read.L1Cache.miss_type_mach_latency_hist_seqr::stdev     5.773503                       (Unspecified)
system.caches.RequestTypeMachineType.RMW_Read.L1Cache.miss_type_mach_latency_hist_seqr |           0      0.00%      0.00% |           0      0.00%      0.00% |           0      0.00%      0.00% |           0      0.00%      0.00% |           2     66.67%     66.67% |           0      0.00%     66.67% |           1     33.33%    100.00% |           0      0.00%    100.00% |           0      0.00%    100.00% |           0      0.00%    100.00% (Unspecified)
system.caches.RequestTypeMachineType.RMW_Read.L1Cache.miss_type_mach_latency_hist_seqr::total            3                       (Unspecified)
system.caches.RequestTypeMachineType.RMW_Read.Directory.miss_type_mach_latency_hist_seqr::bucket_size           32                       (Unspecified)
system.caches.RequestTypeMachineType.RMW_Read.Directory.miss_type_mach_latency_hist_seqr::max_bucket          319                       (Unspecified)
system.caches.RequestTypeMachineType.RMW_Read.Directory.miss_type_mach_latency_hist_seqr::samples           78                       (Unspecified)
system.caches.RequestTypeMachineType.RMW_Read.Directory.miss_type_mach_latency_hist_seqr::mean    66.948718                       (Unspecified)
system.caches.RequestTypeMachineType.RMW_Read.Directory.miss_type_mach_latency_hist_seqr::gmean    58.358125                       (Unspecified)
system.caches.RequestTypeMachineType.RMW_Read.Directory.miss_type_mach_latency_hist_seqr::stdev    51.426381                       (Unspecified)
system.caches.RequestTypeMachineType.RMW_Read.Directory.miss_type_mach_latency_hist_seqr |           4      5.13%      5.13% |          56     71.79%     76.92% |          15     19.23%     96.15% |           0      0.00%     96.15% |           0      0.00%     96.15% |           0      0.00%     96.15% |           0      0.00%     96.15% |           0      0.00%     96.15% |           0      0.00%     96.15% |           3      3.85%    100.00% (Unspecified)
system.caches.RequestTypeMachineType.RMW_Read.Directory.miss_type_mach_latency_hist_seqr::total           78                       (Unspecified)
system.caches.RequestTypeMachineType.Locked_RMW_Read.L1Cache.miss_type_mach_latency_hist_seqr::bucket_size            4                       (Unspecified)
system.caches.RequestTypeMachineType.Locked_RMW_Read.L1Cache.miss_type_mach_latency_hist_seqr::max_bucket           39                       (Unspecified)
system.caches.RequestTypeMachineType.Locked_RMW_Read.L1Cache.miss_type_mach_latency_hist_seqr::samples            3                       (Unspecified)
system.caches.RequestTypeMachineType.Locked_RMW_Read.L1Cache.miss_type_mach_latency_hist_seqr::mean    19.333333                       (Unspecified)
system.caches.RequestTypeMachineType.Locked_RMW_Read.L1Cache.miss_type_mach_latency_hist_seqr::gmean    18.810678                       (Unspecified)
system.caches.RequestTypeMachineType.Locked_RMW_Read.L1Cache.miss_type_mach_latency_hist_seqr::stdev     5.773503                       (Unspecified)
system.caches.RequestTypeMachineType.Locked_RMW_Read.L1Cache.miss_type_mach_latency_hist_seqr |           0      0.00%      0.00% |           0      0.00%      0.00% |           0      0.00%      0.00% |           0      0.00%      0.00% |           2     66.67%     66.67% |           0      0.00%     66.67% |           1     33.33%    100.00% |           0      0.00%    100.00% |           0      0.00%    100.00% |           0      0.00%    100.00% (Unspecified)
system.caches.RequestTypeMachineType.Locked_RMW_Read.L1Cache.miss_type_mach_latency_hist_seqr::total            3                       (Unspecified)
system.caches.RequestTypeMachineType.Locked_RMW_Read.Directory.miss_type_mach_latency_hist_seqr::bucket_size           64                       (Unspecified)
system.caches.RequestTypeMachineType.Locked_RMW_Read.Directory.miss_type_mach_latency_hist_seqr::max_bucket          639                       (Unspecified)
system.caches.RequestTypeMachineType.Locked_RMW_Read.Directory.miss_type_mach_latency_hist_seqr::samples           60                       (Unspecified)
system.caches.RequestTypeMachineType.Locked_RMW_Read.Directory.miss_type_mach_latency_hist_seqr::mean    57.266667                       (Unspecified)
system.caches.RequestTypeMachineType.Locked_RMW_Read.Directory.miss_type_mach_latency_hist_seqr::gmean    51.918255                       (Unspecified)
system.caches.RequestTypeMachineType.Locked_RMW_Read.Directory.miss_type_mach_latency_hist_seqr::stdev    38.262637                       (Unspecified)
system.caches.RequestTypeMachineType.Locked_RMW_Read.Directory.miss_type_mach_latency_hist_seqr |          46     76.67%     76.67% |          13     21.67%     98.33% |           0      0.00%     98.33% |           0      0.00%     98.33% |           0      0.00%     98.33% |           1      1.67%    100.00% |           0      0.00%    100.00% |           0      0.00%    100.00% |           0      0.00%    100.00% |           0      0.00%    100.00% (Unspecified)
system.caches.RequestTypeMachineType.Locked_RMW_Read.Directory.miss_type_mach_latency_hist_seqr::total           60                       (Unspecified)
system.caches.controllers0.fullyBusyCycles        69310                       # cycles for which number of transistions == max transitions (Unspecified)
system.caches.controllers0.cacheMemory.m_demand_hits            0                       # Number of cache demand hits (Unspecified)
system.caches.controllers0.cacheMemory.m_demand_misses            0                       # Number of cache demand misses (Unspecified)
system.caches.controllers0.cacheMemory.m_demand_accesses            0                       # Number of cache demand accesses (Unspecified)
system.caches.controllers0.forwardFromDir.m_buf_msgs     0.000012                       # Average number of messages in buffer (Unspecified)
system.caches.controllers0.forwardFromDir.m_stall_time  4999.867333                       # Average number of cycles messages are stalled in this MB (Unspecified)
system.caches.controllers0.mandatoryQueue.m_buf_msgs     0.020194                       # Average number of messages in buffer (Unspecified)
system.caches.controllers0.mandatoryQueue.m_stall_time  1007.309666                       # Average number of cycles messages are stalled in this MB (Unspecified)
system.caches.controllers0.power_state.pwrStateResidencyTicks::UNDEFINED 601430893000                       # Cumulative time (in ticks) in various power states (Tick)
system.caches.controllers0.requestToDir.m_buf_msgs     0.000024                       # Average number of messages in buffer (Unspecified)
system.caches.controllers0.requestToDir.m_stall_time   999.999997                       # Average number of cycles messages are stalled in this MB (Unspecified)
system.caches.controllers0.responseFromDirOrSibling.m_buf_msgs     0.000012                       # Average number of messages in buffer (Unspecified)
system.caches.controllers0.responseFromDirOrSibling.m_stall_time  4999.999393                       # Average number of cycles messages are stalled in this MB (Unspecified)
system.caches.controllers0.responseToDirOrSibling.m_buf_msgs     0.000000                       # Average number of messages in buffer (Unspecified)
system.caches.controllers0.responseToDirOrSibling.m_stall_time   959.052030                       # Average number of cycles messages are stalled in this MB (Unspecified)
system.caches.controllers1.fullyBusyCycles       124726                       # cycles for which number of transistions == max transitions (Unspecified)
system.caches.controllers1.cacheMemory.m_demand_hits            0                       # Number of cache demand hits (Unspecified)
system.caches.controllers1.cacheMemory.m_demand_misses            0                       # Number of cache demand misses (Unspecified)
system.caches.controllers1.cacheMemory.m_demand_accesses            0                       # Number of cache demand accesses (Unspecified)
system.caches.controllers1.forwardFromDir.m_buf_msgs     0.000021                       # Average number of messages in buffer (Unspecified)
system.caches.controllers1.forwardFromDir.m_stall_time  4795.188316                       # Average number of cycles messages are stalled in this MB (Unspecified)
system.caches.controllers1.mandatoryQueue.m_buf_msgs     0.478928                       # Average number of messages in buffer (Unspecified)
system.caches.controllers1.mandatoryQueue.m_stall_time   972.261139                       # Average number of cycles messages are stalled in this MB (Unspecified)
system.caches.controllers1.power_state.pwrStateResidencyTicks::UNDEFINED 601430893000                       # Cumulative time (in ticks) in various power states (Tick)
system.caches.controllers1.requestToDir.m_buf_msgs     0.000043                       # Average number of messages in buffer (Unspecified)
system.caches.controllers1.requestToDir.m_stall_time   959.052148                       # Average number of cycles messages are stalled in this MB (Unspecified)
system.caches.controllers1.responseFromDirOrSibling.m_buf_msgs     0.000022                       # Average number of messages in buffer (Unspecified)
system.caches.controllers1.responseFromDirOrSibling.m_stall_time  4795.260326                       # Average number of cycles messages are stalled in this MB (Unspecified)
system.caches.controllers1.responseToDirOrSibling.m_buf_msgs     0.000000                       # Average number of messages in buffer (Unspecified)
system.caches.controllers1.responseToDirOrSibling.m_stall_time   959.030246                       # Average number of cycles messages are stalled in this MB (Unspecified)
system.caches.controllers2.fullyBusyCycles       104320                       # cycles for which number of transistions == max transitions (Unspecified)
system.caches.controllers2.cacheMemory.m_demand_hits            0                       # Number of cache demand hits (Unspecified)
system.caches.controllers2.cacheMemory.m_demand_misses            0                       # Number of cache demand misses (Unspecified)
system.caches.controllers2.cacheMemory.m_demand_accesses            0                       # Number of cache demand accesses (Unspecified)
system.caches.controllers2.forwardFromDir.m_buf_msgs     0.000017                       # Average number of messages in buffer (Unspecified)
system.caches.controllers2.forwardFromDir.m_stall_time  4795.117151                       # Average number of cycles messages are stalled in this MB (Unspecified)
system.caches.controllers2.mandatoryQueue.m_buf_msgs     0.152656                       # Average number of messages in buffer (Unspecified)
system.caches.controllers2.mandatoryQueue.m_stall_time   969.997738                       # Average number of cycles messages are stalled in this MB (Unspecified)
system.caches.controllers2.power_state.pwrStateResidencyTicks::UNDEFINED 601430893000                       # Cumulative time (in ticks) in various power states (Tick)
system.caches.controllers2.requestToDir.m_buf_msgs     0.000036                       # Average number of messages in buffer (Unspecified)
system.caches.controllers2.requestToDir.m_stall_time   959.031190                       # Average number of cycles messages are stalled in this MB (Unspecified)
system.caches.controllers2.responseFromDirOrSibling.m_buf_msgs     0.000019                       # Average number of messages in buffer (Unspecified)
system.caches.controllers2.responseFromDirOrSibling.m_stall_time  4795.155301                       # Average number of cycles messages are stalled in this MB (Unspecified)
system.caches.controllers2.responseToDirOrSibling.m_buf_msgs     0.000000                       # Average number of messages in buffer (Unspecified)
system.caches.controllers2.responseToDirOrSibling.m_stall_time   959.023428                       # Average number of cycles messages are stalled in this MB (Unspecified)
system.caches.controllers3.cacheMemory.m_demand_hits            0                       # Number of cache demand hits (Unspecified)
system.caches.controllers3.cacheMemory.m_demand_misses            0                       # Number of cache demand misses (Unspecified)
system.caches.controllers3.cacheMemory.m_demand_accesses            0                       # Number of cache demand accesses (Unspecified)
system.caches.controllers3.power_state.pwrStateResidencyTicks::UNDEFINED 601430893000                       # Cumulative time (in ticks) in various power states (Tick)
system.caches.controllers4.fullyBusyCycles         1123                       # cycles for which number of transistions == max transitions (Unspecified)
system.caches.controllers4.forwardToCache.m_buf_msgs     0.000052                       # Average number of messages in buffer (Unspecified)
system.caches.controllers4.forwardToCache.m_stall_time   999.996568                       # Average number of cycles messages are stalled in this MB (Unspecified)
system.caches.controllers4.power_state.pwrStateResidencyTicks::UNDEFINED 601430893000                       # Cumulative time (in ticks) in various power states (Tick)
system.caches.controllers4.requestFromCache.m_buf_msgs     0.000105                       # Average number of messages in buffer (Unspecified)
system.caches.controllers4.requestFromCache.m_stall_time  5001.359860                       # Average number of cycles messages are stalled in this MB (Unspecified)
system.caches.controllers4.requestToMemory.m_buf_msgs     0.000062                       # Average number of messages in buffer (Unspecified)
system.caches.controllers4.requestToMemory.m_stall_time  1000.000396                       # Average number of cycles messages are stalled in this MB (Unspecified)
system.caches.controllers4.responseFromCache.m_buf_msgs     0.000000                       # Average number of messages in buffer (Unspecified)
system.caches.controllers4.responseFromCache.m_stall_time  4795.260118                       # Average number of cycles messages are stalled in this MB (Unspecified)
system.caches.controllers4.responseFromMemory.m_buf_msgs     0.000081                       # Average number of messages in buffer (Unspecified)
system.caches.controllers4.responseFromMemory.m_stall_time   999.999887                       # Average number of cycles messages are stalled in this MB (Unspecified)
system.caches.controllers4.responseToCache.m_buf_msgs     0.000053                       # Average number of messages in buffer (Unspecified)
system.caches.controllers4.responseToCache.m_stall_time   999.999885                       # Average number of cycles messages are stalled in this MB (Unspecified)
system.caches.network.msg_count.Control        172292                       (Unspecified)
system.caches.network.msg_byte.Control        1378336                       (Unspecified)
system.caches.network.msg_count.Data            75056                       (Unspecified)
system.caches.network.msg_byte.Data           5404032                       (Unspecified)
system.caches.network.int_link_buffers11.m_buf_msgs     0.000000                       # Average number of messages in buffer (Unspecified)
system.caches.network.int_link_buffers11.m_stall_time  2877.156081                       # Average number of cycles messages are stalled in this MB (Unspecified)
system.caches.network.int_link_buffers14.m_buf_msgs     0.000000                       # Average number of messages in buffer (Unspecified)
system.caches.network.int_link_buffers14.m_stall_time  2877.090727                       # Average number of cycles messages are stalled in this MB (Unspecified)
system.caches.network.int_link_buffers17.m_buf_msgs     0.000000                       # Average number of messages in buffer (Unspecified)
system.caches.network.int_link_buffers17.m_stall_time  2877.090452                       # Average number of cycles messages are stalled in this MB (Unspecified)
system.caches.network.int_link_buffers2.m_buf_msgs     0.000000                       # Average number of messages in buffer (Unspecified)
system.caches.network.int_link_buffers2.m_stall_time  2877.156081                       # Average number of cycles messages are stalled in this MB (Unspecified)
system.caches.network.int_link_buffers21.m_buf_msgs     0.000043                       # Average number of messages in buffer (Unspecified)
system.caches.network.int_link_buffers21.m_stall_time  2877.157042                       # Average number of cycles messages are stalled in this MB (Unspecified)
system.caches.network.int_link_buffers23.m_buf_msgs     0.000000                       # Average number of messages in buffer (Unspecified)
system.caches.network.int_link_buffers23.m_stall_time  2877.090727                       # Average number of cycles messages are stalled in this MB (Unspecified)
system.caches.network.int_link_buffers26.m_buf_msgs     0.000000                       # Average number of messages in buffer (Unspecified)
system.caches.network.int_link_buffers26.m_stall_time     0.134759                       # Average number of cycles messages are stalled in this MB (Unspecified)
system.caches.network.int_link_buffers29.m_buf_msgs     0.000000                       # Average number of messages in buffer (Unspecified)
system.caches.network.int_link_buffers29.m_stall_time  2877.070275                       # Average number of cycles messages are stalled in this MB (Unspecified)
system.caches.network.int_link_buffers33.m_buf_msgs     0.000036                       # Average number of messages in buffer (Unspecified)
system.caches.network.int_link_buffers33.m_stall_time  2877.093560                       # Average number of cycles messages are stalled in this MB (Unspecified)
system.caches.network.int_link_buffers35.m_buf_msgs     0.000000                       # Average number of messages in buffer (Unspecified)
system.caches.network.int_link_buffers35.m_stall_time     2.113864                       # Average number of cycles messages are stalled in this MB (Unspecified)
system.caches.network.int_link_buffers49.m_buf_msgs     0.000012                       # Average number of messages in buffer (Unspecified)
system.caches.network.int_link_buffers49.m_stall_time  2999.920450                       # Average number of cycles messages are stalled in this MB (Unspecified)
system.caches.network.int_link_buffers5.m_buf_msgs     0.000000                       # Average number of messages in buffer (Unspecified)
system.caches.network.int_link_buffers5.m_stall_time  2877.093066                       # Average number of cycles messages are stalled in this MB (Unspecified)
system.caches.network.int_link_buffers50.m_buf_msgs     0.000012                       # Average number of messages in buffer (Unspecified)
system.caches.network.int_link_buffers50.m_stall_time  2999.999646                       # Average number of cycles messages are stalled in this MB (Unspecified)
system.caches.network.int_link_buffers52.m_buf_msgs     0.000021                       # Average number of messages in buffer (Unspecified)
system.caches.network.int_link_buffers52.m_stall_time  2877.113486                       # Average number of cycles messages are stalled in this MB (Unspecified)
system.caches.network.int_link_buffers53.m_buf_msgs     0.000022                       # Average number of messages in buffer (Unspecified)
system.caches.network.int_link_buffers53.m_stall_time  2877.156206                       # Average number of cycles messages are stalled in this MB (Unspecified)
system.caches.network.int_link_buffers55.m_buf_msgs     0.000017                       # Average number of messages in buffer (Unspecified)
system.caches.network.int_link_buffers55.m_stall_time  2877.070300                       # Average number of cycles messages are stalled in this MB (Unspecified)
system.caches.network.int_link_buffers56.m_buf_msgs     0.000019                       # Average number of messages in buffer (Unspecified)
system.caches.network.int_link_buffers56.m_stall_time  2877.093191                       # Average number of cycles messages are stalled in this MB (Unspecified)
system.caches.network.int_link_buffers9.m_buf_msgs     0.000024                       # Average number of messages in buffer (Unspecified)
system.caches.network.int_link_buffers9.m_stall_time  2999.999980                       # Average number of cycles messages are stalled in this MB (Unspecified)
system.caches.network.power_state.pwrStateResidencyTicks::UNDEFINED 601430893000                       # Cumulative time (in ticks) in various power states (Tick)
system.caches.network.routers0.percent_links_utilized     0.001627                       (Unspecified)
system.caches.network.routers0.msg_count.Control::0        13075                       (Unspecified)
system.caches.network.routers0.msg_count.Control::1         6969                       (Unspecified)
system.caches.network.routers0.msg_count.Control::2           24                       (Unspecified)
system.caches.network.routers0.msg_bytes.Control::0       104600                       (Unspecified)
system.caches.network.routers0.msg_bytes.Control::1        55752                       (Unspecified)
system.caches.network.routers0.msg_bytes.Control::2          192                       (Unspecified)
system.caches.network.routers0.msg_count.Data::0         1234                       (Unspecified)
system.caches.network.routers0.msg_count.Data::2         7412                       (Unspecified)
system.caches.network.routers0.msg_bytes.Data::0        88848                       (Unspecified)
system.caches.network.routers0.msg_bytes.Data::2       533664                       (Unspecified)
system.caches.network.routers0.port_buffers1.m_buf_msgs     0.000012                       # Average number of messages in buffer (Unspecified)
system.caches.network.routers0.port_buffers1.m_stall_time  3999.893893                       # Average number of cycles messages are stalled in this MB (Unspecified)
system.caches.network.routers0.port_buffers12.m_buf_msgs     0.000024                       # Average number of messages in buffer (Unspecified)
system.caches.network.routers0.port_buffers12.m_stall_time  1999.999990                       # Average number of cycles messages are stalled in this MB (Unspecified)
system.caches.network.routers0.port_buffers14.m_buf_msgs     0.000000                       # Average number of messages in buffer (Unspecified)
system.caches.network.routers0.port_buffers14.m_stall_time  1918.104057                       # Average number of cycles messages are stalled in this MB (Unspecified)
system.caches.network.routers0.port_buffers2.m_buf_msgs     0.000012                       # Average number of messages in buffer (Unspecified)
system.caches.network.routers0.port_buffers2.m_stall_time  3999.999521                       # Average number of cycles messages are stalled in this MB (Unspecified)
system.caches.network.routers0.port_buffers5.m_buf_msgs     0.000000                       # Average number of messages in buffer (Unspecified)
system.caches.network.routers0.port_buffers5.m_stall_time  1918.104057                       # Average number of cycles messages are stalled in this MB (Unspecified)
system.caches.network.routers0.port_buffers8.m_buf_msgs     0.000000                       # Average number of messages in buffer (Unspecified)
system.caches.network.routers0.port_buffers8.m_stall_time  1918.062047                       # Average number of cycles messages are stalled in this MB (Unspecified)
system.caches.network.routers0.power_state.pwrStateResidencyTicks::UNDEFINED 601430893000                       # Cumulative time (in ticks) in various power states (Tick)
system.caches.network.routers0.throttle00.link_utilization     0.006100                       (Unspecified)
system.caches.network.routers0.throttle00.msg_count.Control::1         6969                       (Unspecified)
system.caches.network.routers0.throttle00.msg_count.Control::2            7                       (Unspecified)
system.caches.network.routers0.throttle00.msg_bytes.Control::1        55752                       (Unspecified)
system.caches.network.routers0.throttle00.msg_bytes.Control::2           56                       (Unspecified)
system.caches.network.routers0.throttle00.msg_count.Data::2         7378                       (Unspecified)
system.caches.network.routers0.throttle00.msg_bytes.Data::2       531216                       (Unspecified)
system.caches.network.routers0.throttle01.link_utilization     0.000008                       (Unspecified)
system.caches.network.routers0.throttle01.msg_count.Control::2           11                       (Unspecified)
system.caches.network.routers0.throttle01.msg_bytes.Control::2           88                       (Unspecified)
system.caches.network.routers0.throttle01.msg_count.Data::2           10                       (Unspecified)
system.caches.network.routers0.throttle01.msg_bytes.Data::2          720                       (Unspecified)
system.caches.network.routers0.throttle02.link_utilization     0.000009                       (Unspecified)
system.caches.network.routers0.throttle02.msg_count.Control::2            6                       (Unspecified)
system.caches.network.routers0.throttle02.msg_bytes.Control::2           48                       (Unspecified)
system.caches.network.routers0.throttle02.msg_count.Data::2           11                       (Unspecified)
system.caches.network.routers0.throttle02.msg_bytes.Data::2          792                       (Unspecified)
system.caches.network.routers0.throttle03.link_utilization            0                       (Unspecified)
system.caches.network.routers0.throttle04.link_utilization     0.002020                       (Unspecified)
system.caches.network.routers0.throttle04.msg_count.Control::0        13075                       (Unspecified)
system.caches.network.routers0.throttle04.msg_bytes.Control::0       104600                       (Unspecified)
system.caches.network.routers0.throttle04.msg_count.Data::0         1234                       (Unspecified)
system.caches.network.routers0.throttle04.msg_count.Data::2           13                       (Unspecified)
system.caches.network.routers0.throttle04.msg_bytes.Data::0        88848                       (Unspecified)
system.caches.network.routers0.throttle04.msg_bytes.Data::2          936                       (Unspecified)
system.caches.network.routers1.percent_links_utilized     0.002936                       (Unspecified)
system.caches.network.routers1.msg_count.Control::0        23542                       (Unspecified)
system.caches.network.routers1.msg_count.Control::1        12498                       (Unspecified)
system.caches.network.routers1.msg_count.Control::2           31                       (Unspecified)
[...]
system.mem_ctrl.rdPerTurnAround::64-127            64     18.82%     81.47% # Reads before turning the bus around for writes (Count)
system.mem_ctrl.rdPerTurnAround::128-191           19      5.59%     87.06% # Reads before turning the bus around for writes (Count)
system.mem_ctrl.rdPerTurnAround::192-255           25      7.35%     94.41% # Reads before turning the bus around for writes (Count)
system.mem_ctrl.rdPerTurnAround::256-319            7      2.06%     96.47% # Reads before turning the bus around for writes (Count)
system.mem_ctrl.rdPerTurnAround::320-383            6      1.76%     98.24% # Reads before turning the bus around for writes (Count)
system.mem_ctrl.rdPerTurnAround::384-447            3      0.88%     99.12% # Reads before turning the bus around for writes (Count)
system.mem_ctrl.rdPerTurnAround::448-511            1      0.29%     99.41% # Reads before turning the bus around for writes (Count)
system.mem_ctrl.rdPerTurnAround::1024-1087            1      0.29%     99.71% # Reads before turning the bus around for writes (Count)
system.mem_ctrl.rdPerTurnAround::1536-1599            1      0.29%    100.00% # Reads before turning the bus around for writes (Count)
system.mem_ctrl.rdPerTurnAround::total            340                       # Reads before turning the bus around for writes (Count)
system.mem_ctrl.wrPerTurnAround::samples          340                       # Writes before turning the bus around for reads (Count)
system.mem_ctrl.wrPerTurnAround::mean       16.055882                       # Writes before turning the bus around for reads (Count)
system.mem_ctrl.wrPerTurnAround::gmean      16.052515                       # Writes before turning the bus around for reads (Count)
system.mem_ctrl.wrPerTurnAround::stdev       0.343237                       # Writes before turning the bus around for reads (Count)
system.mem_ctrl.wrPerTurnAround::16               331     97.35%     97.35% # Writes before turning the bus around for reads (Count)
system.mem_ctrl.wrPerTurnAround::18                 8      2.35%     99.71% # Writes before turning the bus around for reads (Count)
system.mem_ctrl.wrPerTurnAround::19                 1      0.29%    100.00% # Writes before turning the bus around for reads (Count)
system.mem_ctrl.wrPerTurnAround::total            340                       # Writes before turning the bus around for reads (Count)
system.mem_ctrl.bytesReadWrQ                    74240                       # Total number of bytes read from write queue (Byte)
system.mem_ctrl.bytesReadSys                  2040512                       # Total read bytes from the system interface side (Byte)
system.mem_ctrl.bytesWrittenSys                358464                       # Total written bytes from the system interface side (Byte)
system.mem_ctrl.avgRdBWSys               3392762.20052767                       # Average system read bandwidth in Byte/s ((Byte/Second))
system.mem_ctrl.avgWrBWSys               596018.60192439                       # Average system write bandwidth in Byte/s ((Byte/Second))
system.mem_ctrl.totGap                   601430834000                       # Total gap between requests (Tick)
system.mem_ctrl.avgGap                    16045001.44                       # Average gap between requests ((Tick/Count))
system.mem_ctrl.requestorReadBytes::caches.controllers4      1966272                       # Per-requestor bytes read from memory (Byte)
system.mem_ctrl.requestorWriteBytes::caches.controllers4       349376                       # Per-requestor bytes write to memory (Byte)
system.mem_ctrl.requestorReadRate::caches.controllers4 3269323.247085014824                       # Per-requestor bytes read from memory rate ((Byte/Second))
system.mem_ctrl.requestorWriteRate::caches.controllers4 580907.971416759305                       # Per-requestor bytes write to memory rate ((Byte/Second))
system.mem_ctrl.requestorReadAccesses::caches.controllers4        31883                       # Per-requestor read serviced memory accesses (Count)
system.mem_ctrl.requestorWriteAccesses::caches.controllers4         5601                       # Per-requestor write serviced memory accesses (Count)
system.mem_ctrl.requestorReadTotalLat::caches.controllers4    926384000                       # Per-requestor read total memory access latency (Tick)
system.mem_ctrl.requestorWriteTotalLat::caches.controllers4 14770022686250                       # Per-requestor write total memory access latency (Tick)
system.mem_ctrl.requestorReadAvgLat::caches.controllers4     29055.74                       # Per-requestor read average memory access latency ((Tick/Count))
system.mem_ctrl.requestorWriteAvgLat::caches.controllers4 2637033152.34                       # Per-requestor write average memory access latency ((Tick/Count))
system.mem_ctrl.dram.bytesRead::caches.controllers4      2040512                       # Number of bytes read from this memory (Byte)
system.mem_ctrl.dram.bytesRead::total         2040512                       # Number of bytes read from this memory (Byte)
system.mem_ctrl.dram.bytesWritten::caches.controllers4       358464                       # Number of bytes written to this memory (Byte)
system.mem_ctrl.dram.bytesWritten::total       358464                       # Number of bytes written to this memory (Byte)
system.mem_ctrl.dram.numReads::caches.controllers4        31883                       # Number of read requests responded to by this memory (Count)
system.mem_ctrl.dram.numReads::total            31883                       # Number of read requests responded to by this memory (Count)
system.mem_ctrl.dram.numWrites::caches.controllers4         5601                       # Number of write requests responded to by this memory (Count)
system.mem_ctrl.dram.numWrites::total            5601                       # Number of write requests responded to by this memory (Count)
system.mem_ctrl.dram.bwRead::caches.controllers4      3392762                       # Total read bandwidth from this memory ((Byte/Second))
system.mem_ctrl.dram.bwRead::total            3392762                       # Total read bandwidth from this memory ((Byte/Second))
system.mem_ctrl.dram.bwWrite::caches.controllers4       596019                       # Write bandwidth from this memory ((Byte/Second))
system.mem_ctrl.dram.bwWrite::total            596019                       # Write bandwidth from this memory ((Byte/Second))
system.mem_ctrl.dram.bwTotal::caches.controllers4      3988781                       # Total bandwidth to/from this memory ((Byte/Second))
system.mem_ctrl.dram.bwTotal::total           3988781                       # Total bandwidth to/from this memory ((Byte/Second))
system.mem_ctrl.dram.readBursts                 30723                       # Number of DRAM read bursts (Count)
system.mem_ctrl.dram.writeBursts                 5459                       # Number of DRAM write bursts (Count)
system.mem_ctrl.dram.perBankRdBursts::0          2856                       # Per bank write bursts (Count)
system.mem_ctrl.dram.perBankRdBursts::1          1767                       # Per bank write bursts (Count)
system.mem_ctrl.dram.perBankRdBursts::2          1485                       # Per bank write bursts (Count)
system.mem_ctrl.dram.perBankRdBursts::3          5851                       # Per bank write bursts (Count)
system.mem_ctrl.dram.perBankRdBursts::4          4359                       # Per bank write bursts (Count)
system.mem_ctrl.dram.perBankRdBursts::5          1487                       # Per bank write bursts (Count)
system.mem_ctrl.dram.perBankRdBursts::6          2167                       # Per bank write bursts (Count)
system.mem_ctrl.dram.perBankRdBursts::7          1185                       # Per bank write bursts (Count)
system.mem_ctrl.dram.perBankRdBursts::8           341                       # Per bank write bursts (Count)
system.mem_ctrl.dram.perBankRdBursts::9          1020                       # Per bank write bursts (Count)
system.mem_ctrl.dram.perBankRdBursts::10         1236                       # Per bank write bursts (Count)
system.mem_ctrl.dram.perBankRdBursts::11          719                       # Per bank write bursts (Count)
system.mem_ctrl.dram.perBankRdBursts::12          728                       # Per bank write bursts (Count)
system.mem_ctrl.dram.perBankRdBursts::13         1410                       # Per bank write bursts (Count)
system.mem_ctrl.dram.perBankRdBursts::14         2100                       # Per bank write bursts (Count)
system.mem_ctrl.dram.perBankRdBursts::15         2012                       # Per bank write bursts (Count)
system.mem_ctrl.dram.perBankWrBursts::0           374                       # Per bank write bursts (Count)
system.mem_ctrl.dram.perBankWrBursts::1           368                       # Per bank write bursts (Count)
system.mem_ctrl.dram.perBankWrBursts::2           615                       # Per bank write bursts (Count)
system.mem_ctrl.dram.perBankWrBursts::3           128                       # Per bank write bursts (Count)
system.mem_ctrl.dram.perBankWrBursts::4            29                       # Per bank write bursts (Count)
system.mem_ctrl.dram.perBankWrBursts::5           795                       # Per bank write bursts (Count)
system.mem_ctrl.dram.perBankWrBursts::6          1183                       # Per bank write bursts (Count)
system.mem_ctrl.dram.perBankWrBursts::7           176                       # Per bank write bursts (Count)
system.mem_ctrl.dram.perBankWrBursts::8            51                       # Per bank write bursts (Count)
system.mem_ctrl.dram.perBankWrBursts::9           187                       # Per bank write bursts (Count)
system.mem_ctrl.dram.perBankWrBursts::10          249                       # Per bank write bursts (Count)
system.mem_ctrl.dram.perBankWrBursts::11           64                       # Per bank write bursts (Count)
system.mem_ctrl.dram.perBankWrBursts::12          184                       # Per bank write bursts (Count)
system.mem_ctrl.dram.perBankWrBursts::13          288                       # Per bank write bursts (Count)
system.mem_ctrl.dram.perBankWrBursts::14          390                       # Per bank write bursts (Count)
system.mem_ctrl.dram.perBankWrBursts::15          378                       # Per bank write bursts (Count)
system.mem_ctrl.dram.totQLat                350327750                       # Total ticks spent queuing (Tick)
system.mem_ctrl.dram.totBusLat              153615000                       # Total ticks spent in databus transfers (Tick)
system.mem_ctrl.dram.totMemAccLat           926384000                       # Total ticks spent from burst creation until serviced by the DRAM (Tick)
system.mem_ctrl.dram.avgQLat                 11402.78                       # Average queueing delay per DRAM burst ((Tick/Count))
system.mem_ctrl.dram.avgBusLat                5000.00                       # Average bus latency per DRAM burst ((Tick/Count))
system.mem_ctrl.dram.avgMemAccLat            30152.78                       # Average memory access latency per DRAM burst ((Tick/Count))
system.mem_ctrl.dram.readRowHits                18351                       # Number of row buffer hits during reads (Count)
system.mem_ctrl.dram.writeRowHits                4733                       # Number of row buffer hits during writes (Count)
system.mem_ctrl.dram.readRowHitRate             59.73                       # Row buffer hit rate for reads (Ratio)
system.mem_ctrl.dram.writeRowHitRate            86.70                       # Row buffer hit rate for writes (Ratio)
system.mem_ctrl.dram.bytesPerActivate::samples        13091                       # Bytes accessed per row activation (Byte)
system.mem_ctrl.dram.bytesPerActivate::mean   176.707662                       # Bytes accessed per row activation (Byte)
system.mem_ctrl.dram.bytesPerActivate::gmean   130.508619                       # Bytes accessed per row activation (Byte)
system.mem_ctrl.dram.bytesPerActivate::stdev   176.985277                       # Bytes accessed per row activation (Byte)
system.mem_ctrl.dram.bytesPerActivate::0-127         5418     41.39%     41.39% # Bytes accessed per row activation (Byte)
system.mem_ctrl.dram.bytesPerActivate::128-255         5227     39.93%     81.32% # Bytes accessed per row activation (Byte)
system.mem_ctrl.dram.bytesPerActivate::256-383         1232      9.41%     90.73% # Bytes accessed per row activation (Byte)
system.mem_ctrl.dram.bytesPerActivate::384-511          484      3.70%     94.42% # Bytes accessed per row activation (Byte)
system.mem_ctrl.dram.bytesPerActivate::512-639          221      1.69%     96.11% # Bytes accessed per row activation (Byte)
system.mem_ctrl.dram.bytesPerActivate::640-767          108      0.82%     96.94% # Bytes accessed per row activation (Byte)
system.mem_ctrl.dram.bytesPerActivate::768-895          101      0.77%     97.71% # Bytes accessed per row activation (Byte)
system.mem_ctrl.dram.bytesPerActivate::896-1023           84      0.64%     98.35% # Bytes accessed per row activation (Byte)
system.mem_ctrl.dram.bytesPerActivate::1024-1151          216      1.65%    100.00% # Bytes accessed per row activation (Byte)
system.mem_ctrl.dram.bytesPerActivate::total        13091                       # Bytes accessed per row activation (Byte)
system.mem_ctrl.dram.bytesRead                1966272                       # Total number of bytes read from DRAM (Byte)
system.mem_ctrl.dram.bytesWritten              349376                       # Total number of bytes written to DRAM (Byte)
system.mem_ctrl.dram.avgRdBW                 3.269323                       # Average DRAM read bandwidth in MiBytes/s ((Byte/Second))
system.mem_ctrl.dram.avgWrBW                 0.580908                       # Average DRAM write bandwidth in MiBytes/s ((Byte/Second))
system.mem_ctrl.dram.peakBW                  12800.00                       # Theoretical peak bandwidth in MiByte/s ((Byte/Second))
system.mem_ctrl.dram.busUtil                     0.03                       # Data bus utilization in percentage (Ratio)
system.mem_ctrl.dram.busUtilRead                 0.03                       # Data bus utilization in percentage for reads (Ratio)
system.mem_ctrl.dram.busUtilWrite                0.00                       # Data bus utilization in percentage for writes (Ratio)
system.mem_ctrl.dram.pageHitRate                63.80                       # Row buffer hit rate, read and write combined (Ratio)
system.mem_ctrl.dram.power_state.pwrStateResidencyTicks::UNDEFINED 601430893000                       # Cumulative time (in ticks) in various power states (Tick)
system.mem_ctrl.dram.rank0.actEnergy         65081100                       # Energy for activate commands per rank (pJ) (Joule)
system.mem_ctrl.dram.rank0.preEnergy         34583835                       # Energy for precharge commands per rank (pJ) (Joule)
system.mem_ctrl.dram.rank0.readEnergy       151060980                       # Energy for read commands per rank (pJ) (Joule)
system.mem_ctrl.dram.rank0.writeEnergy       19146960                       # Energy for write commands per rank (pJ) (Joule)
system.mem_ctrl.dram.rank0.refreshEnergy 47476022880.000008                       # Energy for refresh commands per rank (pJ) (Joule)
system.mem_ctrl.dram.rank0.actBackEnergy  19059158400                       # Energy for active background per rank (pJ) (Joule)
system.mem_ctrl.dram.rank0.preBackEnergy 214899645600                       # Energy for precharge background per rank (pJ) (Joule)
system.mem_ctrl.dram.rank0.actPowerDownEnergy            0                       # Energy for active power-down per rank (pJ) (Joule)
system.mem_ctrl.dram.rank0.prePowerDownEnergy            0                       # Energy for precharge power-down per rank (pJ) (Joule)
system.mem_ctrl.dram.rank0.selfRefreshEnergy            0                       # Energy for self refresh per rank (pJ) (Joule)
system.mem_ctrl.dram.rank0.totalEnergy   281704699755                       # Total energy per rank (pJ) (Joule)
system.mem_ctrl.dram.rank0.averagePower    468.390804                       # Core power per rank (mW) (Watt)
system.mem_ctrl.dram.rank0.totalIdleTime            0                       # Total Idle time Per DRAM Rank (Tick)
system.mem_ctrl.dram.rank0.pwrStateTime::IDLE 558511472000                       # Time in different power states (Tick)
system.mem_ctrl.dram.rank0.pwrStateTime::REF  20082920000                       # Time in different power states (Tick)
system.mem_ctrl.dram.rank0.pwrStateTime::SREF            0                       # Time in different power states (Tick)
system.mem_ctrl.dram.rank0.pwrStateTime::PRE_PDN            0                       # Time in different power states (Tick)
system.mem_ctrl.dram.rank0.pwrStateTime::ACT  22836501000                       # Time in different power states (Tick)
system.mem_ctrl.dram.rank0.pwrStateTime::ACT_PDN            0                       # Time in different power states (Tick)
system.mem_ctrl.dram.rank1.actEnergy         28438620                       # Energy for activate commands per rank (pJ) (Joule)
system.mem_ctrl.dram.rank1.preEnergy         15096510                       # Energy for precharge commands per rank (pJ) (Joule)
system.mem_ctrl.dram.rank1.readEnergy        68301240                       # Energy for read commands per rank (pJ) (Joule)
system.mem_ctrl.dram.rank1.writeEnergy        9349020                       # Energy for write commands per rank (pJ) (Joule)
system.mem_ctrl.dram.rank1.refreshEnergy 47476022880.000008                       # Energy for refresh commands per rank (pJ) (Joule)
system.mem_ctrl.dram.rank1.actBackEnergy  14098338960                       # Energy for active background per rank (pJ) (Joule)
system.mem_ctrl.dram.rank1.preBackEnergy 219077177760                       # Energy for precharge background per rank (pJ) (Joule)
system.mem_ctrl.dram.rank1.actPowerDownEnergy            0                       # Energy for active power-down per rank (pJ) (Joule)
system.mem_ctrl.dram.rank1.prePowerDownEnergy            0                       # Energy for precharge power-down per rank (pJ) (Joule)
system.mem_ctrl.dram.rank1.selfRefreshEnergy            0                       # Energy for self refresh per rank (pJ) (Joule)
system.mem_ctrl.dram.rank1.totalEnergy   280772724990                       # Total energy per rank (pJ) (Joule)
system.mem_ctrl.dram.rank1.averagePower    466.841209                       # Core power per rank (mW) (Watt)
system.mem_ctrl.dram.rank1.totalIdleTime            0                       # Total Idle time Per DRAM Rank (Tick)
system.mem_ctrl.dram.rank1.pwrStateTime::IDLE 569416371250                       # Time in different power states (Tick)
system.mem_ctrl.dram.rank1.pwrStateTime::REF  20082920000                       # Time in different power states (Tick)
system.mem_ctrl.dram.rank1.pwrStateTime::SREF            0                       # Time in different power states (Tick)
system.mem_ctrl.dram.rank1.pwrStateTime::PRE_PDN            0                       # Time in different power states (Tick)
system.mem_ctrl.dram.rank1.pwrStateTime::ACT  11931601750                       # Time in different power states (Tick)
system.mem_ctrl.dram.rank1.pwrStateTime::ACT_PDN            0                       # Time in different power states (Tick)
system.mem_ctrl.power_state.pwrStateResidencyTicks::UNDEFINED 601430893000                       # Cumulative time (in ticks) in various power states (Tick)
system.workload.inst.arm                            0                       # number of arm instructions executed (Count)
system.workload.inst.quiesce                        0                       # number of quiesce instructions executed (Count)

---------- End Simulation Statistics   ----------
