
---------- Begin Simulation Statistics ----------
simSeconds                                   0.076634                       # Number of seconds simulated (Second)
simTicks                                  76634433000                       # Number of ticks simulated (Tick)
finalTick                                 76634433000                       # Number of ticks from beginning of simulation (restored from checkpoints and never reset) (Tick)
simFreq                                  1000000000000                       # The number of ticks per simulated second ((Tick/Second))
hostSeconds                                     92.63                       # Real time elapsed on the host (Second)
hostTickRate                                827350743                       # The number of ticks simulated per host second (ticks/s) ((Tick/Second))
hostMemory                                     838344                       # Number of bytes of host memory used (Byte)
simInsts                                     28634855                       # Number of instructions simulated (Count)
simOps                                       46611552                       # Number of ops (including micro ops) simulated (Count)
hostInstRate                                   309143                       # Simulator instruction rate (inst/s) ((Count/Second))
hostOpRate                                     503221                       # Simulator op (including micro ops) rate (op/s) ((Count/Second))
system.caches.m_outstandReqHistSeqr::bucket_size            1                       (Unspecified)
system.caches.m_outstandReqHistSeqr::max_bucket            9                       (Unspecified)
system.caches.m_outstandReqHistSeqr::samples     49407503                       (Unspecified)
system.caches.m_outstandReqHistSeqr::mean     1.000003                       (Unspecified)
system.caches.m_outstandReqHistSeqr::gmean     1.000002                       (Unspecified)
system.caches.m_outstandReqHistSeqr::stdev     0.001754                       (Unspecified)
system.caches.m_outstandReqHistSeqr      |           0      0.00%      0.00% |    49407351    100.00%    100.00% |         152      0.00%    100.00% |           0      0.00%    100.00% |           0      0.00%    100.00% |           0      0.00%    100.00% |           0      0.00%    100.00% |           0      0.00%    100.00% |           0      0.00%    100.00% |           0      0.00%    100.00% (Unspecified)
system.caches.m_outstandReqHistSeqr::total     49407503                       (Unspecified)
system.caches.m_latencyHistSeqr::bucket_size           64                       (Unspecified)
system.caches.m_latencyHistSeqr::max_bucket          639                       (Unspecified)
system.caches.m_latencyHistSeqr::samples     49407503                       (Unspecified)
system.caches.m_latencyHistSeqr::mean        1.020750                       (Unspecified)
system.caches.m_latencyHistSeqr::gmean       1.001277                       (Unspecified)
system.caches.m_latencyHistSeqr::stdev       1.306892                       (Unspecified)
system.caches.m_latencyHistSeqr          |    49402984     99.99%     99.99% |        4141      0.01%    100.00% |         141      0.00%    100.00% |          67      0.00%    100.00% |         113      0.00%    100.00% |          56      0.00%    100.00% |           1      0.00%    100.00% |           0      0.00%    100.00% |           0      0.00%    100.00% |           0      0.00%    100.00% (Unspecified)
system.caches.m_latencyHistSeqr::total       49407503                       (Unspecified)
system.caches.m_hitLatencyHistSeqr::bucket_size            1                       (Unspecified)
system.caches.m_hitLatencyHistSeqr::max_bucket            9                       (Unspecified)
system.caches.m_hitLatencyHistSeqr::samples     49392407                       (Unspecified)
system.caches.m_hitLatencyHistSeqr::mean            1                       (Unspecified)
system.caches.m_hitLatencyHistSeqr::gmean            1                       (Unspecified)
system.caches.m_hitLatencyHistSeqr       |           0      0.00%      0.00% |    49392407    100.00%    100.00% |           0      0.00%    100.00% |           0      0.00%    100.00% |           0      0.00%    100.00% |           0      0.00%    100.00% |           0      0.00%    100.00% |           0      0.00%    100.00% |           0      0.00%    100.00% |           0      0.00%    100.00% (Unspecified)
system.caches.m_hitLatencyHistSeqr::total     49392407                       (Unspecified)
system.caches.m_missLatencyHistSeqr::bucket_size           64                       (Unspecified)
system.caches.m_missLatencyHistSeqr::max_bucket          639                       (Unspecified)
system.caches.m_missLatencyHistSeqr::samples        15096                       (Unspecified)
system.caches.m_missLatencyHistSeqr::mean    68.913421                       (Unspecified)
system.caches.m_missLatencyHistSeqr::gmean    65.252759                       (Unspecified)
system.caches.m_missLatencyHistSeqr::stdev    31.292552                       (Unspecified)
system.caches.m_missLatencyHistSeqr      |       10577     70.06%     70.06% |        4141     27.43%     97.50% |         141      0.93%     98.43% |          67      0.44%     98.87% |         113      0.75%     99.62% |          56      0.37%     99.99% |           1      0.01%    100.00% |           0      0.00%    100.00% |           0      0.00%    100.00% |           0      0.00%    100.00% (Unspecified)
system.caches.m_missLatencyHistSeqr::total        15096                       (Unspecified)
system.caches.L1Cache_Controller.Load    |     1597500      3.54%      3.54% |    33015112     73.13%     76.67% |    10535018     23.33%    100.00% |           0      0.00%    100.00% (Unspecified)
system.caches.L1Cache_Controller.Load::total     45147630                       (Unspecified)
system.caches.L1Cache_Controller.Store   |      199136      4.67%      4.67% |     3096146     72.68%     77.36% |      964591     22.64%    100.00% |           0      0.00%    100.00% (Unspecified)
system.caches.L1Cache_Controller.Store::total      4259873                       (Unspecified)
system.caches.L1Cache_Controller.Replacement |     2064315     46.26%     46.26% |     1521880     34.10%     80.36% |      876441     19.64%    100.00% |           0      0.00%    100.00% (Unspecified)
system.caches.L1Cache_Controller.Replacement::total      4462636                       (Unspecified)
system.caches.L1Cache_Controller.FwdGetS |          14     50.00%     50.00% |          10     35.71%     85.71% |           4     14.29%    100.00% |           0      0.00%    100.00% (Unspecified)
system.caches.L1Cache_Controller.FwdGetS::total           28                       (Unspecified)
system.caches.L1Cache_Controller.FwdGetM |           7     46.67%     46.67% |           5     33.33%     80.00% |           3     20.00%    100.00% |           0      0.00%    100.00% (Unspecified)
system.caches.L1Cache_Controller.FwdGetM::total           15                       (Unspecified)
system.caches.L1Cache_Controller.Inv     |          20     47.62%     47.62% |          11     26.19%     73.81% |          11     26.19%    100.00% |           0      0.00%    100.00% (Unspecified)
system.caches.L1Cache_Controller.Inv::total           42                       (Unspecified)
system.caches.L1Cache_Controller.PutAck  |        6451     46.26%     46.26% |        4756     34.10%     80.36% |        2739     19.64%    100.00% |           0      0.00%    100.00% (Unspecified)
system.caches.L1Cache_Controller.PutAck::total        13946                       (Unspecified)
system.caches.L1Cache_Controller.DataDirNoAcks |        6885     45.74%     45.74% |        5131     34.09%     79.82% |        3037     20.18%    100.00% |           0      0.00%    100.00% (Unspecified)
system.caches.L1Cache_Controller.DataDirNoAcks::total        15053                       (Unspecified)
system.caches.L1Cache_Controller.DataOwner |           6     13.95%     13.95% |          16     37.21%     51.16% |          21     48.84%    100.00% |           0      0.00%    100.00% (Unspecified)
system.caches.L1Cache_Controller.DataOwner::total           43                       (Unspecified)
system.caches.L1Cache_Controller.InvAck  |           7     16.67%     16.67% |          23     54.76%     71.43% |          12     28.57%    100.00% |           0      0.00%    100.00% (Unspecified)
system.caches.L1Cache_Controller.InvAck::total           42                       (Unspecified)
system.caches.L1Cache_Controller.I.Load  |        5826     44.30%     44.30% |        4604     35.01%     79.32% |        2720     20.68%    100.00% |           0      0.00%    100.00% (Unspecified)
system.caches.L1Cache_Controller.I.Load::total        13150                       (Unspecified)
system.caches.L1Cache_Controller.I.Store |         908     56.68%     56.68% |         418     26.09%     82.77% |         276     17.23%    100.00% |           0      0.00%    100.00% (Unspecified)
system.caches.L1Cache_Controller.I.Store::total         1602                       (Unspecified)
system.caches.L1Cache_Controller.IS_D.DataDirNoAcks |        5823     44.38%     44.38% |        4592     34.99%     79.37% |        2707     20.63%    100.00% |           0      0.00%    100.00% (Unspecified)
system.caches.L1Cache_Controller.IS_D.DataDirNoAcks::total        13122                       (Unspecified)
system.caches.L1Cache_Controller.IS_D.DataOwner |           3     10.71%     10.71% |          12     42.86%     53.57% |          13     46.43%    100.00% |           0      0.00%    100.00% (Unspecified)
system.caches.L1Cache_Controller.IS_D.DataOwner::total           28                       (Unspecified)
system.caches.L1Cache_Controller.IM_AD.DataDirNoAcks |         905     57.03%     57.03% |         414     26.09%     83.11% |         268     16.89%    100.00% |           0      0.00%    100.00% (Unspecified)
system.caches.L1Cache_Controller.IM_AD.DataDirNoAcks::total         1587                       (Unspecified)
system.caches.L1Cache_Controller.IM_AD.DataOwner |           3     20.00%     20.00% |           4     26.67%     46.67% |           8     53.33%    100.00% |           0      0.00%    100.00% (Unspecified)
system.caches.L1Cache_Controller.IM_AD.DataOwner::total           15                       (Unspecified)
system.caches.L1Cache_Controller.IM_AD.InvAck |           1     25.00%     25.00% |           3     75.00%    100.00% |           0      0.00%    100.00% |           0      0.00%    100.00% (Unspecified)
system.caches.L1Cache_Controller.IM_AD.InvAck::total            4                       (Unspecified)
system.caches.L1Cache_Controller.S.Load  |     1437828      3.83%      3.83% |    27768624     74.05%     77.88% |     8294357     22.12%    100.00% |           0      0.00%    100.00% (Unspecified)
system.caches.L1Cache_Controller.S.Load::total     37500809                       (Unspecified)
system.caches.L1Cache_Controller.S.Store |         157     45.64%     45.64% |         125     36.34%     81.98% |          62     18.02%    100.00% |           0      0.00%    100.00% (Unspecified)
system.caches.L1Cache_Controller.S.Store::total          344                       (Unspecified)
system.caches.L1Cache_Controller.S.Replacement |        5451     44.85%     44.85% |        4269     35.12%     79.97% |        2434     20.03%    100.00% |           0      0.00%    100.00% (Unspecified)
system.caches.L1Cache_Controller.S.Replacement::total        12154                       (Unspecified)
system.caches.L1Cache_Controller.S.Inv   |          20     47.62%     47.62% |          11     26.19%     73.81% |          11     26.19%    100.00% |           0      0.00%    100.00% (Unspecified)
system.caches.L1Cache_Controller.S.Inv::total           42                       (Unspecified)
system.caches.L1Cache_Controller.SM_AD.DataDirNoAcks |         157     45.64%     45.64% |         125     36.34%     81.98% |          62     18.02%    100.00% |           0      0.00%    100.00% (Unspecified)
system.caches.L1Cache_Controller.SM_AD.DataDirNoAcks::total          344                       (Unspecified)
system.caches.L1Cache_Controller.SM_AD.InvAck |           6     15.79%     15.79% |          20     52.63%     68.42% |          12     31.58%    100.00% |           0      0.00%    100.00% (Unspecified)
system.caches.L1Cache_Controller.SM_AD.InvAck::total           38                       (Unspecified)
system.caches.L1Cache_Controller.M.Load  |      153846      2.02%      2.02% |     5241884     68.67%     70.68% |     2237941     29.32%    100.00% |           0      0.00%    100.00% (Unspecified)
system.caches.L1Cache_Controller.M.Load::total      7633671                       (Unspecified)
system.caches.L1Cache_Controller.M.Store |      198071      4.65%      4.65% |     3095603     72.70%     77.35% |      964253     22.65%    100.00% |           0      0.00%    100.00% (Unspecified)
system.caches.L1Cache_Controller.M.Store::total      4257927                       (Unspecified)
system.caches.L1Cache_Controller.M.Replacement |        1000     55.80%     55.80% |         487     27.18%     82.98% |         305     17.02%    100.00% |           0      0.00%    100.00% (Unspecified)
system.caches.L1Cache_Controller.M.Replacement::total         1792                       (Unspecified)
system.caches.L1Cache_Controller.M.FwdGetS |          14     50.00%     50.00% |          10     35.71%     85.71% |           4     14.29%    100.00% |           0      0.00%    100.00% (Unspecified)
system.caches.L1Cache_Controller.M.FwdGetS::total           28                       (Unspecified)
system.caches.L1Cache_Controller.M.FwdGetM |           7     46.67%     46.67% |           5     33.33%     80.00% |           3     20.00%    100.00% |           0      0.00%    100.00% (Unspecified)
system.caches.L1Cache_Controller.M.FwdGetM::total           15                       (Unspecified)
system.caches.L1Cache_Controller.MI_A.Replacement |      318999     55.81%     55.81% |      155334     27.18%     82.98% |       97273     17.02%    100.00% |           0      0.00%    100.00% (Unspecified)
system.caches.L1Cache_Controller.MI_A.Replacement::total       571606                       (Unspecified)
system.caches.L1Cache_Controller.MI_A.PutAck |        1000     55.80%     55.80% |         487     27.18%     82.98% |         305     17.02%    100.00% |           0      0.00%    100.00% (Unspecified)
system.caches.L1Cache_Controller.MI_A.PutAck::total         1792                       (Unspecified)
system.caches.L1Cache_Controller.SI_A.Replacement |     1738865     44.85%     44.85% |     1361790     35.12%     79.97% |      776429     20.03%    100.00% |           0      0.00%    100.00% (Unspecified)
system.caches.L1Cache_Controller.SI_A.Replacement::total      3877084                       (Unspecified)
system.caches.L1Cache_Controller.SI_A.PutAck |        5451     44.85%     44.85% |        4269     35.12%     79.97% |        2434     20.03%    100.00% |           0      0.00%    100.00% (Unspecified)
system.caches.L1Cache_Controller.SI_A.PutAck::total        12154                       (Unspecified)
system.caches.Directory_Controller.GetS         46877      0.00%      0.00% (Unspecified)
system.caches.Directory_Controller.GetM          1946      0.00%      0.00% (Unspecified)
system.caches.Directory_Controller.PutSNotLast         2828      0.00%      0.00% (Unspecified)
system.caches.Directory_Controller.PutSLast         9326      0.00%      0.00% (Unspecified)
system.caches.Directory_Controller.PutMOwner         1792      0.00%      0.00% (Unspecified)
system.caches.Directory_Controller.Data            28      0.00%      0.00% (Unspecified)
system.caches.Directory_Controller.MemData        15053      0.00%      0.00% (Unspecified)
system.caches.Directory_Controller.MemAck         1820      0.00%      0.00% (Unspecified)
system.caches.Directory_Controller.I.GetS        10134      0.00%      0.00% (Unspecified)
system.caches.Directory_Controller.I.GetM         1583      0.00%      0.00% (Unspecified)
system.caches.Directory_Controller.S.GetS         2988      0.00%      0.00% (Unspecified)
system.caches.Directory_Controller.S.GetM          348      0.00%      0.00% (Unspecified)
system.caches.Directory_Controller.S.PutSNotLast         2801      0.00%      0.00% (Unspecified)
system.caches.Directory_Controller.S.PutSLast         9326      0.00%      0.00% (Unspecified)
system.caches.Directory_Controller.M.GetS           28      0.00%      0.00% (Unspecified)
system.caches.Directory_Controller.M.GetM           15      0.00%      0.00% (Unspecified)
system.caches.Directory_Controller.M.PutMOwner         1792      0.00%      0.00% (Unspecified)
system.caches.Directory_Controller.S_D.Data           28      0.00%      0.00% (Unspecified)
system.caches.Directory_Controller.S_m.GetS        33727      0.00%      0.00% (Unspecified)
system.caches.Directory_Controller.S_m.PutSNotLast           27      0.00%      0.00% (Unspecified)
system.caches.Directory_Controller.S_m.MemData        13122      0.00%      0.00% (Unspecified)
system.caches.Directory_Controller.M_m.MemData         1931      0.00%      0.00% (Unspecified)
system.caches.Directory_Controller.MI_m.MemAck         1792      0.00%      0.00% (Unspecified)
system.caches.Directory_Controller.SS_m.MemAck           28      0.00%      0.00% (Unspecified)
system.caches.MachineType.L1Cache.miss_mach_latency_hist_seqr::bucket_size            4                       (Unspecified)
system.caches.MachineType.L1Cache.miss_mach_latency_hist_seqr::max_bucket           39                       (Unspecified)
system.caches.MachineType.L1Cache.miss_mach_latency_hist_seqr::samples           43                       (Unspecified)
system.caches.MachineType.L1Cache.miss_mach_latency_hist_seqr::mean    20.488372                       (Unspecified)
system.caches.MachineType.L1Cache.miss_mach_latency_hist_seqr::gmean    19.910843                       (Unspecified)
system.caches.MachineType.L1Cache.miss_mach_latency_hist_seqr::stdev     4.973128                       (Unspecified)
system.caches.MachineType.L1Cache.miss_mach_latency_hist_seqr |           0      0.00%      0.00% |           0      0.00%      0.00% |           0      0.00%      0.00% |           0      0.00%      0.00% |          24     55.81%     55.81% |           0      0.00%     55.81% |          19     44.19%    100.00% |           0      0.00%    100.00% |           0      0.00%    100.00% |           0      0.00%    100.00% (Unspecified)
system.caches.MachineType.L1Cache.miss_mach_latency_hist_seqr::total           43                       (Unspecified)
system.caches.MachineType.L1Cache.incomplete_times_seqr           43                       (Unspecified)
system.caches.MachineType.Directory.miss_mach_latency_hist_seqr::bucket_size           64                      
system.caches.MachineType.Directory.miss_mach_latency_hist_seqr::max_bucket          639                      
system.caches.MachineType.Directory.miss_mach_latency_hist_seqr::samples        15053                      
system.caches.MachineType.Directory.miss_mach_latency_hist_seqr::mean    69.051750                      
system.caches.MachineType.Directory.miss_mach_latency_hist_seqr::gmean    65.474391                      
system.caches.MachineType.Directory.miss_mach_latency_hist_seqr::stdev    31.228737                      
system.caches.MachineType.Directory.miss_mach_latency_hist_seqr |       10534     69.98%     69.98% |        4141     27.51%     97.49% |         141      0.94%     98.43% |          67      0.45%     98.87% |         113      0.75%     99.62% |          56      0.37%     99.99% |           1      0.01%    100.00% |           0      0.00%    100.00% |           0      0.00%    100.00% |           0      0.00%    100.00% (Unspecified)
system.caches.MachineType.Directory.miss_mach_latency_hist_seqr::total        15053                      
system.caches.MachineType.Directory.miss_latency_hist_seqr.issue_to_initial_request::bucket_size            1                      
system.caches.MachineType.Directory.miss_latency_hist_seqr.issue_to_initial_request::max_bucket            9                      
system.caches.MachineType.Directory.miss_latency_hist_seqr.issue_to_initial_request::samples            1                      
system.caches.MachineType.Directory.miss_latency_hist_seqr.issue_to_initial_request::stdev          nan                      
system.caches.MachineType.Directory.miss_latency_hist_seqr.issue_to_initial_request |           1    100.00%    100.00% |           0      0.00%    100.00% |           0      0.00%    100.00% |           0      0.00%    100.00% |           0      0.00%    100.00% |           0      0.00%    100.00% |           0      0.00%    100.00% |           0      0.00%    100.00% |           0      0.00%    100.00% |           0      0.00%    100.00% (Unspecified)
system.caches.MachineType.Directory.miss_latency_hist_seqr.issue_to_initial_request::total            1                      
system.caches.MachineType.Directory.miss_latency_hist_seqr.initial_to_forward::bucket_size            1                      
system.caches.MachineType.Directory.miss_latency_hist_seqr.initial_to_forward::max_bucket            9                      
system.caches.MachineType.Directory.miss_latency_hist_seqr.initial_to_forward::samples            1                      
system.caches.MachineType.Directory.miss_latency_hist_seqr.initial_to_forward::stdev          nan                      
system.caches.MachineType.Directory.miss_latency_hist_seqr.initial_to_forward |           1    100.00%    100.00% |           0      0.00%    100.00% |           0      0.00%    100.00% |           0      0.00%    100.00% |           0      0.00%    100.00% |           0      0.00%    100.00% |           0      0.00%    100.00% |           0      0.00%    100.00% |           0      0.00%    100.00% |           0      0.00%    100.00% (Unspecified)
system.caches.MachineType.Directory.miss_latency_hist_seqr.initial_to_forward::total            1                      
system.caches.MachineType.Directory.miss_latency_hist_seqr.forward_to_first_response::bucket_size            1                      
system.caches.MachineType.Directory.miss_latency_hist_seqr.forward_to_first_response::max_bucket            9                      
system.caches.MachineType.Directory.miss_latency_hist_seqr.forward_to_first_response::samples            1                      
system.caches.MachineType.Directory.miss_latency_hist_seqr.forward_to_first_response::stdev          nan                      
system.caches.MachineType.Directory.miss_latency_hist_seqr.forward_to_first_response |           1    100.00%    100.00% |           0      0.00%    100.00% |           0      0.00%    100.00% |           0      0.00%    100.00% |           0      0.00%    100.00% |           0      0.00%    100.00% |           0      0.00%    100.00% |           0      0.00%    100.00% |           0      0.00%    100.00% |           0      0.00%    100.00% (Unspecified)
system.caches.MachineType.Directory.miss_latency_hist_seqr.forward_to_first_response::total            1                      
system.caches.MachineType.Directory.miss_latency_hist_seqr.first_response_to_completion::bucket_size            8                      
system.caches.MachineType.Directory.miss_latency_hist_seqr.first_response_to_completion::max_bucket           79                      
system.caches.MachineType.Directory.miss_latency_hist_seqr.first_response_to_completion::samples            1                      
system.caches.MachineType.Directory.miss_latency_hist_seqr.first_response_to_completion::mean           73                      
system.caches.MachineType.Directory.miss_latency_hist_seqr.first_response_to_completion::gmean    73.000000                      
system.caches.MachineType.Directory.miss_latency_hist_seqr.first_response_to_completion::stdev          nan                      
system.caches.MachineType.Directory.miss_latency_hist_seqr.first_response_to_completion |           0      0.00%      0.00% |           0      0.00%      0.00% |           0      0.00%      0.00% |           0      0.00%      0.00% |           0      0.00%      0.00% |           0      0.00%      0.00% |           0      0.00%      0.00% |           0      0.00%      0.00% |           0      0.00%      0.00% |           1    100.00%    100.00% (Unspecified)
system.caches.MachineType.Directory.miss_latency_hist_seqr.first_response_to_completion::total            1                      
system.caches.MachineType.Directory.incomplete_times_seqr        15052                       (Unspecified)
system.caches.RequestType.LD.latency_hist_seqr::bucket_size           64                       (Unspecified)
system.caches.RequestType.LD.latency_hist_seqr::max_bucket          639                       (Unspecified)
system.caches.RequestType.LD.latency_hist_seqr::samples      7978804                       (Unspecified)
system.caches.RequestType.LD.latency_hist_seqr::mean     1.054661                       (Unspecified)
system.caches.RequestType.LD.latency_hist_seqr::gmean     1.003388                       (Unspecified)
system.caches.RequestType.LD.latency_hist_seqr::stdev     2.115952                       (Unspecified)
system.caches.RequestType.LD.latency_hist_seqr |     7976647     99.97%     99.97% |        1997      0.03%    100.00% |          61      0.00%    100.00% |          31      0.00%    100.00% |          49      0.00%    100.00% |          19      0.00%    100.00% |           0      0.00%    100.00% |           0      0.00%    100.00% |           0      0.00%    100.00% |           0      0.00%    100.00% (Unspecified)
system.caches.RequestType.LD.latency_hist_seqr::total      7978804                       (Unspecified)
system.caches.RequestType.LD.hit_latency_hist_seqr::bucket_size            1                       (Unspecified)
system.caches.RequestType.LD.hit_latency_hist_seqr::max_bucket            9                       (Unspecified)
system.caches.RequestType.LD.hit_latency_hist_seqr::samples      7972315                       (Unspecified)
system.caches.RequestType.LD.hit_latency_hist_seqr::mean            1                       (Unspecified)
system.caches.RequestType.LD.hit_latency_hist_seqr::gmean            1                       (Unspecified)
system.caches.RequestType.LD.hit_latency_hist_seqr |           0      0.00%      0.00% |     7972315    100.00%    100.00% |           0      0.00%    100.00% |           0      0.00%    100.00% |           0      0.00%    100.00% |           0      0.00%    100.00% |           0      0.00%    100.00% |           0      0.00%    100.00% |           0      0.00%    100.00% |           0      0.00%    100.00% (Unspecified)
system.caches.RequestType.LD.hit_latency_hist_seqr::total      7972315                       (Unspecified)
system.caches.RequestType.LD.miss_latency_hist_seqr::bucket_size           64                       (Unspecified)
system.caches.RequestType.LD.miss_latency_hist_seqr::max_bucket          639                       (Unspecified)
system.caches.RequestType.LD.miss_latency_hist_seqr::samples         6489                       (Unspecified)
system.caches.RequestType.LD.miss_latency_hist_seqr::mean    68.210202                       (Unspecified)
system.caches.RequestType.LD.miss_latency_hist_seqr::gmean    63.999373                       (Unspecified)
system.caches.RequestType.LD.miss_latency_hist_seqr::stdev    31.492780                       (Unspecified)
system.caches.RequestType.LD.miss_latency_hist_seqr |        4332     66.76%     66.76% |        1997     30.78%     97.53% |          61      0.94%     98.47% |          31      0.48%     98.95% |          49      0.76%     99.71% |          19      0.29%    100.00% |           0      0.00%    100.00% |           0      0.00%    100.00% |           0      0.00%    100.00% |           0      0.00%    100.00% (Unspecified)
system.caches.RequestType.LD.miss_latency_hist_seqr::total         6489                       (Unspecified)
system.caches.RequestType.ST.latency_hist_seqr::bucket_size           64                       (Unspecified)
system.caches.RequestType.ST.latency_hist_seqr::max_bucket          639                       (Unspecified)
system.caches.RequestType.ST.latency_hist_seqr::samples      3921898                       (Unspecified)
system.caches.RequestType.ST.latency_hist_seqr::mean     1.030394                       (Unspecified)
system.caches.RequestType.ST.latency_hist_seqr::gmean     1.001924                       (Unspecified)
system.caches.RequestType.ST.latency_hist_seqr::stdev     1.535110                       (Unspecified)
system.caches.RequestType.ST.latency_hist_seqr |     3921261     99.98%     99.98% |         597      0.02%    100.00% |          20      0.00%    100.00% |           6      0.00%    100.00% |          12      0.00%    100.00% |           2      0.00%    100.00% |           0      0.00%    100.00% |           0      0.00%    100.00% |           0      0.00%    100.00% |           0      0.00%    100.00% (Unspecified)
system.caches.RequestType.ST.latency_hist_seqr::total      3921898                       (Unspecified)
system.caches.RequestType.ST.hit_latency_hist_seqr::bucket_size            1                       (Unspecified)
system.caches.RequestType.ST.hit_latency_hist_seqr::max_bucket            9                       (Unspecified)
system.caches.RequestType.ST.hit_latency_hist_seqr::samples      3920075                       (Unspecified)
system.caches.RequestType.ST.hit_latency_hist_seqr::mean            1                       (Unspecified)
system.caches.RequestType.ST.hit_latency_hist_seqr::gmean            1                       (Unspecified)
system.caches.RequestType.ST.hit_latency_hist_seqr |           0      0.00%      0.00% |     3920075    100.00%    100.00% |           0      0.00%    100.00% |           0      0.00%    100.00% |           0      0.00%    100.00% |           0      0.00%    100.00% |           0      0.00%    100.00% |           0      0.00%    100.00% |           0      0.00%    100.00% |           0      0.00%    100.00% (Unspecified)
system.caches.RequestType.ST.hit_latency_hist_seqr::total      3920075                       (Unspecified)
system.caches.RequestType.ST.miss_latency_hist_seqr::bucket_size           64                       (Unspecified)
system.caches.RequestType.ST.miss_latency_hist_seqr::max_bucket          639                       (Unspecified)
system.caches.RequestType.ST.miss_latency_hist_seqr::samples         1823                       (Unspecified)
system.caches.RequestType.ST.miss_latency_hist_seqr::mean    66.388371                       (Unspecified)
system.caches.RequestType.ST.miss_latency_hist_seqr::gmean    62.568920                       (Unspecified)
system.caches.RequestType.ST.miss_latency_hist_seqr::stdev    28.223382                       (Unspecified)
system.caches.RequestType.ST.miss_latency_hist_seqr |        1186     65.06%     65.06% |         597     32.75%     97.81% |          20      1.10%     98.90% |           6      0.33%     99.23% |          12      0.66%     99.89% |           2      0.11%    100.00% |           0      0.00%    100.00% |           0      0.00%    100.00% |           0      0.00%    100.00% |           0      0.00%    100.00% (Unspecified)
system.caches.RequestType.ST.miss_latency_hist_seqr::total         1823                       (Unspecified)
system.caches.RequestType.IFETCH.latency_hist_seqr::bucket_size           64                       (Unspecified)
system.caches.RequestType.IFETCH.latency_hist_seqr::max_bucket          639                       (Unspecified)
system.caches.RequestType.IFETCH.latency_hist_seqr::samples     37168826                       (Unspecified)
system.caches.RequestType.IFETCH.latency_hist_seqr::mean     1.012449                       (Unspecified)
system.caches.RequestType.IFETCH.latency_hist_seqr::gmean     1.000755                       (Unspecified)
system.caches.RequestType.IFETCH.latency_hist_seqr::stdev     1.021954                       (Unspecified)
system.caches.RequestType.IFETCH.latency_hist_seqr |    37167132    100.00%    100.00% |        1518      0.00%    100.00% |          60      0.00%    100.00% |          30      0.00%    100.00% |          51      0.00%    100.00% |          34      0.00%    100.00% |           1      0.00%    100.00% |           0      0.00%    100.00% |           0      0.00%    100.00% |           0      0.00%    100.00% (Unspecified)
system.caches.RequestType.IFETCH.latency_hist_seqr::total     37168826                       (Unspecified)
system.caches.RequestType.IFETCH.hit_latency_hist_seqr::bucket_size            1                       (Unspecified)
system.caches.RequestType.IFETCH.hit_latency_hist_seqr::max_bucket            9                       (Unspecified)
system.caches.RequestType.IFETCH.hit_latency_hist_seqr::samples     37162165                       (Unspecified)
system.caches.RequestType.IFETCH.hit_latency_hist_seqr::mean            1                       (Unspecified)
system.caches.RequestType.IFETCH.hit_latency_hist_seqr::gmean            1                       (Unspecified)
system.caches.RequestType.IFETCH.hit_latency_hist_seqr |           0      0.00%      0.00% |    37162165    100.00%    100.00% |           0      0.00%    100.00% |           0      0.00%    100.00% |           0      0.00%    100.00% |           0      0.00%    100.00% |           0      0.00%    100.00% |           0      0.00%    100.00% |           0      0.00%    100.00% |           0      0.00%    100.00% (Unspecified)
system.caches.RequestType.IFETCH.hit_latency_hist_seqr::total     37162165                       (Unspecified)
system.caches.RequestType.IFETCH.miss_latency_hist_seqr::bucket_size           64                       (Unspecified)
system.caches.RequestType.IFETCH.miss_latency_hist_seqr::max_bucket          639                       (Unspecified)
system.caches.RequestType.IFETCH.miss_latency_hist_seqr::samples         6661                       (Unspecified)
system.caches.RequestType.IFETCH.miss_latency_hist_seqr::mean    70.466897                       (Unspecified)
system.caches.RequestType.IFETCH.miss_latency_hist_seqr::gmean    67.527993                       (Unspecified)
system.caches.RequestType.IFETCH.miss_latency_hist_seqr::stdev    31.672190                       (Unspecified)
system.caches.RequestType.IFETCH.miss_latency_hist_seqr |        4967     74.57%     74.57% |        1518     22.79%     97.36% |          60      0.90%     98.26% |          30      0.45%     98.71% |          51      0.77%     99.47% |          34      0.51%     99.98% |           1      0.02%    100.00% |           0      0.00%    100.00% |           0      0.00%    100.00% |           0      0.00%    100.00% (Unspecified)
system.caches.RequestType.IFETCH.miss_latency_hist_seqr::total         6661                       (Unspecified)
system.caches.RequestType.RMW_Read.latency_hist_seqr::bucket_size           64                       (Unspecified)
system.caches.RequestType.RMW_Read.latency_hist_seqr::max_bucket          639                       (Unspecified)
system.caches.RequestType.RMW_Read.latency_hist_seqr::samples       304821                       (Unspecified)
system.caches.RequestType.RMW_Read.latency_hist_seqr::mean     1.016150                       (Unspecified)
system.caches.RequestType.RMW_Read.latency_hist_seqr::gmean     1.001035                       (Unspecified)
system.caches.RequestType.RMW_Read.latency_hist_seqr::stdev     1.229762                       (Unspecified)
system.caches.RequestType.RMW_Read.latency_hist_seqr |      304802     99.99%     99.99% |          17      0.01%    100.00% |           0      0.00%    100.00% |           0      0.00%    100.00% |           1      0.00%    100.00% |           1      0.00%    100.00% |           0      0.00%    100.00% |           0      0.00%    100.00% |           0      0.00%    100.00% |           0      0.00%    100.00% (Unspecified)
system.caches.RequestType.RMW_Read.latency_hist_seqr::total       304821                       (Unspecified)
system.caches.RequestType.RMW_Read.hit_latency_hist_seqr::bucket_size            1                       (Unspecified)
system.caches.RequestType.RMW_Read.hit_latency_hist_seqr::max_bucket            9                       (Unspecified)
system.caches.RequestType.RMW_Read.hit_latency_hist_seqr::samples       304743                       (Unspecified)
system.caches.RequestType.RMW_Read.hit_latency_hist_seqr::mean            1                       (Unspecified)
system.caches.RequestType.RMW_Read.hit_latency_hist_seqr::gmean            1                       (Unspecified)
system.caches.RequestType.RMW_Read.hit_latency_hist_seqr |           0      0.00%      0.00% |      304743    100.00%    100.00% |           0      0.00%    100.00% |           0      0.00%    100.00% |           0      0.00%    100.00% |           0      0.00%    100.00% |           0      0.00%    100.00% |           0      0.00%    100.00% |           0      0.00%    100.00% |           0      0.00%    100.00% (Unspecified)
system.caches.RequestType.RMW_Read.hit_latency_hist_seqr::total       304743                       (Unspecified)
system.caches.RequestType.RMW_Read.miss_latency_hist_seqr::bucket_size           64                       (Unspecified)
system.caches.RequestType.RMW_Read.miss_latency_hist_seqr::max_bucket          639                       (Unspecified)
system.caches.RequestType.RMW_Read.miss_latency_hist_seqr::samples           78                       (Unspecified)
system.caches.RequestType.RMW_Read.miss_latency_hist_seqr::mean    64.115385                       (Unspecified)
system.caches.RequestType.RMW_Read.miss_latency_hist_seqr::gmean    56.887964                       (Unspecified)
system.caches.RequestType.RMW_Read.miss_latency_hist_seqr::stdev    44.187611                       (Unspecified)
system.caches.RequestType.RMW_Read.miss_latency_hist_seqr |          59     75.64%     75.64% |          17     21.79%     97.44% |           0      0.00%     97.44% |           0      0.00%     97.44% |           1      1.28%     98.72% |           1      1.28%    100.00% |           0      0.00%    100.00% |           0      0.00%    100.00% |           0      0.00%    100.00% |           0      0.00%    100.00% (Unspecified)
system.caches.RequestType.RMW_Read.miss_latency_hist_seqr::total           78                       (Unspecified)
system.caches.RequestType.Locked_RMW_Read.latency_hist_seqr::bucket_size           16                       (Unspecified)
system.caches.RequestType.Locked_RMW_Read.latency_hist_seqr::max_bucket          159                       (Unspecified)
system.caches.RequestType.Locked_RMW_Read.latency_hist_seqr::samples        16577                       (Unspecified)
system.caches.RequestType.Locked_RMW_Read.latency_hist_seqr::mean     1.135670                       (Unspecified)
system.caches.RequestType.Locked_RMW_Read.latency_hist_seqr::gmean     1.010481                       (Unspecified)
system.caches.RequestType.Locked_RMW_Read.latency_hist_seqr::stdev     2.789964                       (Unspecified)
system.caches.RequestType.Locked_RMW_Read.latency_hist_seqr |       16532     99.73%     99.73% |           9      0.05%     99.78% |           4      0.02%     99.81% |          20      0.12%     99.93% |           6      0.04%     99.96% |           6      0.04%    100.00% |           0      0.00%    100.00% |           0      0.00%    100.00% |           0      0.00%    100.00% |           0      0.00%    100.00% (Unspecified)
system.caches.RequestType.Locked_RMW_Read.latency_hist_seqr::total        16577                       (Unspecified)
system.caches.RequestType.Locked_RMW_Read.hit_latency_hist_seqr::bucket_size            1                       (Unspecified)
system.caches.RequestType.Locked_RMW_Read.hit_latency_hist_seqr::max_bucket            9                       (Unspecified)
system.caches.RequestType.Locked_RMW_Read.hit_latency_hist_seqr::samples        16532                       (Unspecified)
system.caches.RequestType.Locked_RMW_Read.hit_latency_hist_seqr::mean            1                       (Unspecified)
system.caches.RequestType.Locked_RMW_Read.hit_latency_hist_seqr::gmean            1                       (Unspecified)
system.caches.RequestType.Locked_RMW_Read.hit_latency_hist_seqr |           0      0.00%      0.00% |       16532    100.00%    100.00% |           0      0.00%    100.00% |           0      0.00%    100.00% |           0      0.00%    100.00% |           0      0.00%    100.00% |           0      0.00%    100.00% |           0      0.00%    100.00% |           0      0.00%    100.00% |           0      0.00%    100.00% (Unspecified)
system.caches.RequestType.Locked_RMW_Read.hit_latency_hist_seqr::total        16532                       (Unspecified)
system.caches.RequestType.Locked_RMW_Read.miss_latency_hist_seqr::bucket_size           16                       (Unspecified)
system.caches.RequestType.Locked_RMW_Read.miss_latency_hist_seqr::max_bucket          159                       (Unspecified)
system.caches.RequestType.Locked_RMW_Read.miss_latency_hist_seqr::samples           45                       (Unspecified)
system.caches.RequestType.Locked_RMW_Read.miss_latency_hist_seqr::mean    50.977778                       (Unspecified)
system.caches.RequestType.Locked_RMW_Read.miss_latency_hist_seqr::gmean    46.570746                       (Unspecified)
system.caches.RequestType.Locked_RMW_Read.miss_latency_hist_seqr::stdev    19.616191                       (Unspecified)
system.caches.RequestType.Locked_RMW_Read.miss_latency_hist_seqr |           0      0.00%      0.00% |           9     20.00%     20.00% |           4      8.89%     28.89% |          20     44.44%     73.33% |           6     13.33%     86.67% |           6     13.33%    100.00% |           0      0.00%    100.00% |           0      0.00%    100.00% |           0      0.00%    100.00% |           0      0.00%    100.00% (Unspecified)
system.caches.RequestType.Locked_RMW_Read.miss_latency_hist_seqr::total           45                       (Unspecified)
system.caches.RequestType.Locked_RMW_Write.latency_hist_seqr::bucket_size            1                       (Unspecified)
system.caches.RequestType.Locked_RMW_Write.latency_hist_seqr::max_bucket            9                       (Unspecified)
system.caches.RequestType.Locked_RMW_Write.latency_hist_seqr::samples        16577                       (Unspecified)
system.caches.RequestType.Locked_RMW_Write.latency_hist_seqr::mean            1                       (Unspecified)
system.caches.RequestType.Locked_RMW_Write.latency_hist_seqr::gmean            1                       (Unspecified)
system.caches.RequestType.Locked_RMW_Write.latency_hist_seqr |           0      0.00%      0.00% |       16577    100.00%    100.00% |           0      0.00%    100.00% |           0      0.00%    100.00% |           0      0.00%    100.00% |           0      0.00%    100.00% |           0      0.00%    100.00% |           0      0.00%    100.00% |           0      0.00%    100.00% |           0      0.00%    100.00% (Unspecified)
system.caches.RequestType.Locked_RMW_Write.latency_hist_seqr::total        16577                       (Unspecified)
system.caches.RequestType.Locked_RMW_Write.hit_latency_hist_seqr::bucket_size            1                       (Unspecified)
system.caches.RequestType.Locked_RMW_Write.hit_latency_hist_seqr::max_bucket            9                       (Unspecified)
system.caches.RequestType.Locked_RMW_Write.hit_latency_hist_seqr::samples        16577                       (Unspecified)
system.caches.RequestType.Locked_RMW_Write.hit_latency_hist_seqr::mean            1                       (Unspecified)
system.caches.RequestType.Locked_RMW_Write.hit_latency_hist_seqr::gmean            1                       (Unspecified)
system.caches.RequestType.Locked_RMW_Write.hit_latency_hist_seqr |           0      0.00%      0.00% |       16577    100.00%    100.00% |           0      0.00%    100.00% |           0      0.00%    100.00% |           0      0.00%    100.00% |           0      0.00%    100.00% |           0      0.00%    100.00% |           0      0.00%    100.00% |           0      0.00%    100.00% |           0      0.00%    100.00% (Unspecified)
system.caches.RequestType.Locked_RMW_Write.hit_latency_hist_seqr::total        16577                       (Unspecified)
system.caches.RequestTypeMachineType.LD.L1Cache.miss_type_mach_latency_hist_seqr::bucket_size            4                       (Unspecified)
system.caches.RequestTypeMachineType.LD.L1Cache.miss_type_mach_latency_hist_seqr::max_bucket           39                       (Unspecified)
system.caches.RequestTypeMachineType.LD.L1Cache.miss_type_mach_latency_hist_seqr::samples           28                       (Unspecified)
system.caches.RequestTypeMachineType.LD.L1Cache.miss_type_mach_latency_hist_seqr::mean    21.785714                       (Unspecified)
system.caches.RequestTypeMachineType.LD.L1Cache.miss_type_mach_latency_hist_seqr::gmean    21.204815                       (Unspecified)
system.caches.RequestTypeMachineType.LD.L1Cache.miss_type_mach_latency_hist_seqr::stdev     4.969217                       (Unspecified)
system.caches.RequestTypeMachineType.LD.L1Cache.miss_type_mach_latency_hist_seqr |           0      0.00%      0.00% |           0      0.00%      0.00% |           0      0.00%      0.00% |           0      0.00%      0.00% |          12     42.86%     42.86% |           0      0.00%     42.86% |          16     57.14%    100.00% |           0      0.00%    100.00% |           0      0.00%    100.00% |           0      0.00%    100.00% (Unspecified)
system.caches.RequestTypeMachineType.LD.L1Cache.miss_type_mach_latency_hist_seqr::total           28                       (Unspecified)
system.caches.RequestTypeMachineType.LD.Directory.miss_type_mach_latency_hist_seqr::bucket_size           64                       (Unspecified)
system.caches.RequestTypeMachineType.LD.Directory.miss_type_mach_latency_hist_seqr::max_bucket          639                       (Unspecified)
system.caches.RequestTypeMachineType.LD.Directory.miss_type_mach_latency_hist_seqr::samples         6461                       (Unspecified)
system.caches.RequestTypeMachineType.LD.Directory.miss_type_mach_latency_hist_seqr::mean    68.411391                       (Unspecified)
system.caches.RequestTypeMachineType.LD.Directory.miss_type_mach_latency_hist_seqr::gmean    64.306485                       (Unspecified)
system.caches.RequestTypeMachineType.LD.Directory.miss_type_mach_latency_hist_seqr::stdev    31.410329                       (Unspecified)
system.caches.RequestTypeMachineType.LD.Directory.miss_type_mach_latency_hist_seqr |        4304     66.62%     66.62% |        1997     30.91%     97.52% |          61      0.94%     98.47% |          31      0.48%     98.95% |          49      0.76%     99.71% |          19      0.29%    100.00% |           0      0.00%    100.00% |           0      0.00%    100.00% |           0      0.00%    100.00% |           0      0.00%    100.00% (Unspecified)
system.caches.RequestTypeMachineType.LD.Directory.miss_type_mach_latency_hist_seqr::total         6461                       (Unspecified)
system.caches.RequestTypeMachineType.ST.L1Cache.miss_type_mach_latency_hist_seqr::bucket_size            4                       (Unspecified)
system.caches.RequestTypeMachineType.ST.L1Cache.miss_type_mach_latency_hist_seqr::max_bucket           39                       (Unspecified)
system.caches.RequestTypeMachineType.ST.L1Cache.miss_type_mach_latency_hist_seqr::samples           10                       (Unspecified)
system.caches.RequestTypeMachineType.ST.L1Cache.miss_type_mach_latency_hist_seqr::mean    17.100000                       (Unspecified)
system.caches.RequestTypeMachineType.ST.L1Cache.miss_type_mach_latency_hist_seqr::gmean    16.898113                       (Unspecified)
system.caches.RequestTypeMachineType.ST.L1Cache.miss_type_mach_latency_hist_seqr::stdev     3.142893                       (Unspecified)
system.caches.RequestTypeMachineType.ST.L1Cache.miss_type_mach_latency_hist_seqr |           0      0.00%      0.00% |           0      0.00%      0.00% |           0      0.00%      0.00% |           0      0.00%      0.00% |           9     90.00%     90.00% |           0      0.00%     90.00% |           1     10.00%    100.00% |           0      0.00%    100.00% |           0      0.00%    100.00% |           0      0.00%    100.00% (Unspecified)
system.caches.RequestTypeMachineType.ST.L1Cache.miss_type_mach_latency_hist_seqr::total           10                       (Unspecified)
system.caches.RequestTypeMachineType.ST.Directory.miss_type_mach_latency_hist_seqr::bucket_size           64                       (Unspecified)
system.caches.RequestTypeMachineType.ST.Directory.miss_type_mach_latency_hist_seqr::max_bucket          639                       (Unspecified)
system.caches.RequestTypeMachineType.ST.Directory.miss_type_mach_latency_hist_seqr::samples         1813                       (Unspecified)
system.caches.RequestTypeMachineType.ST.Directory.miss_type_mach_latency_hist_seqr::mean    66.660232                       (Unspecified)
system.caches.RequestTypeMachineType.ST.Directory.miss_type_mach_latency_hist_seqr::gmean    63.022331                       (Unspecified)
system.caches.RequestTypeMachineType.ST.Directory.miss_type_mach_latency_hist_seqr::stdev    28.061100                       (Unspecified)
system.caches.RequestTypeMachineType.ST.Directory.miss_type_mach_latency_hist_seqr |        1176     64.86%     64.86% |         597     32.93%     97.79% |          20      1.10%     98.90% |           6      0.33%     99.23% |          12      0.66%     99.89% |           2      0.11%    100.00% |           0      0.00%    100.00% |           0      0.00%    100.00% |           0      0.00%    100.00% |           0      0.00%    100.00% (Unspecified)
system.caches.RequestTypeMachineType.ST.Directory.miss_type_mach_latency_hist_seqr::total         1813                       (Unspecified)
system.caches.RequestTypeMachineType.IFETCH.Directory.miss_type_mach_latency_hist_seqr::bucket_size           64                       (Unspecified)
system.caches.RequestTypeMachineType.IFETCH.Directory.miss_type_mach_latency_hist_seqr::max_bucket          639                       (Unspecified)
system.caches.RequestTypeMachineType.IFETCH.Directory.miss_type_mach_latency_hist_seqr::samples         6661                       (Unspecified)
system.caches.RequestTypeMachineType.IFETCH.Directory.miss_type_mach_latency_hist_seqr::mean    70.466897                       (Unspecified)
system.caches.RequestTypeMachineType.IFETCH.Directory.miss_type_mach_latency_hist_seqr::gmean    67.527993                       (Unspecified)
system.caches.RequestTypeMachineType.IFETCH.Directory.miss_type_mach_latency_hist_seqr::stdev    31.672190                       (Unspecified)
system.caches.RequestTypeMachineType.IFETCH.Directory.miss_type_mach_latency_hist_seqr |        4967     74.57%     74.57% |        1518     22.79%     97.36% |          60      0.90%     98.26% |          30      0.45%     98.71% |          51      0.77%     99.47% |          34      0.51%     99.98% |           1      0.02%    100.00% |           0      0.00%    100.00% |           0      0.00%    100.00% |           0      0.00%    100.00% (Unspecified)
system.caches.RequestTypeMachineType.IFETCH.Directory.miss_type_mach_latency_hist_seqr::total         6661                       (Unspecified)
system.caches.RequestTypeMachineType.RMW_Read.L1Cache.miss_type_mach_latency_hist_seqr::bucket_size            4                       (Unspecified)
system.caches.RequestTypeMachineType.RMW_Read.L1Cache.miss_type_mach_latency_hist_seqr::max_bucket           39                       (Unspecified)
system.caches.RequestTypeMachineType.RMW_Read.L1Cache.miss_type_mach_latency_hist_seqr::samples            2                       (Unspecified)
system.caches.RequestTypeMachineType.RMW_Read.L1Cache.miss_type_mach_latency_hist_seqr::mean           21                       (Unspecified)
system.caches.RequestTypeMachineType.RMW_Read.L1Cache.miss_type_mach_latency_hist_seqr::gmean    20.396078                       (Unspecified)
system.caches.RequestTypeMachineType.RMW_Read.L1Cache.miss_type_mach_latency_hist_seqr::stdev     7.071068                       (Unspecified)
system.caches.RequestTypeMachineType.RMW_Read.L1Cache.miss_type_mach_latency_hist_seqr |           0      0.00%      0.00% |           0      0.00%      0.00% |           0      0.00%      0.00% |           0      0.00%      0.00% |           1     50.00%     50.00% |           0      0.00%     50.00% |           1     50.00%    100.00% |           0      0.00%    100.00% |           0      0.00%    100.00% |           0      0.00%    100.00% (Unspecified)
system.caches.RequestTypeMachineType.RMW_Read.L1Cache.miss_type_mach_latency_hist_seqr::total            2                       (Unspecified)
system.caches.RequestTypeMachineType.RMW_Read.Directory.miss_type_mach_latency_hist_seqr::bucket_size           64                       (Unspecified)
system.caches.RequestTypeMachineType.RMW_Read.Directory.miss_type_mach_latency_hist_seqr::max_bucket          639                       (Unspecified)
system.caches.RequestTypeMachineType.RMW_Read.Directory.miss_type_mach_latency_hist_seqr::samples           76                       (Unspecified)
system.caches.RequestTypeMachineType.RMW_Read.Directory.miss_type_mach_latency_hist_seqr::mean    65.250000                       (Unspecified)
system.caches.RequestTypeMachineType.RMW_Read.Directory.miss_type_mach_latency_hist_seqr::gmean    58.444465                       (Unspecified)
system.caches.RequestTypeMachineType.RMW_Read.Directory.miss_type_mach_latency_hist_seqr::stdev    44.193552                       (Unspecified)
system.caches.RequestTypeMachineType.RMW_Read.Directory.miss_type_mach_latency_hist_seqr |          57     75.00%     75.00% |          17     22.37%     97.37% |           0      0.00%     97.37% |           0      0.00%     97.37% |           1      1.32%     98.68% |           1      1.32%    100.00% |           0      0.00%    100.00% |           0      0.00%    100.00% |           0      0.00%    100.00% |           0      0.00%    100.00% (Unspecified)
system.caches.RequestTypeMachineType.RMW_Read.Directory.miss_type_mach_latency_hist_seqr::total           76                       (Unspecified)
system.caches.RequestTypeMachineType.Locked_RMW_Read.L1Cache.miss_type_mach_latency_hist_seqr::bucket_size            4                       (Unspecified)
system.caches.RequestTypeMachineType.Locked_RMW_Read.L1Cache.miss_type_mach_latency_hist_seqr::max_bucket           39                       (Unspecified)
system.caches.RequestTypeMachineType.Locked_RMW_Read.L1Cache.miss_type_mach_latency_hist_seqr::samples            3                       (Unspecified)
system.caches.RequestTypeMachineType.Locked_RMW_Read.L1Cache.miss_type_mach_latency_hist_seqr::mean    19.333333                       (Unspecified)
system.caches.RequestTypeMachineType.Locked_RMW_Read.L1Cache.miss_type_mach_latency_hist_seqr::gmean    18.810678                       (Unspecified)
system.caches.RequestTypeMachineType.Locked_RMW_Read.L1Cache.miss_type_mach_latency_hist_seqr::stdev     5.773503                       (Unspecified)
system.caches.RequestTypeMachineType.Locked_RMW_Read.L1Cache.miss_type_mach_latency_hist_seqr |           0      0.00%      0.00% |           0      0.00%      0.00% |           0      0.00%      0.00% |           0      0.00%      0.00% |           2     66.67%     66.67% |           0      0.00%     66.67% |           1     33.33%    100.00% |           0      0.00%    100.00% |           0      0.00%    100.00% |           0      0.00%    100.00% (Unspecified)
system.caches.RequestTypeMachineType.Locked_RMW_Read.L1Cache.miss_type_mach_latency_hist_seqr::total            3                       (Unspecified)
system.caches.RequestTypeMachineType.Locked_RMW_Read.Directory.miss_type_mach_latency_hist_seqr::bucket_size           16                       (Unspecified)
system.caches.RequestTypeMachineType.Locked_RMW_Read.Directory.miss_type_mach_latency_hist_seqr::max_bucket          159                       (Unspecified)
system.caches.RequestTypeMachineType.Locked_RMW_Read.Directory.miss_type_mach_latency_hist_seqr::samples           42                       (Unspecified)
system.caches.RequestTypeMachineType.Locked_RMW_Read.Directory.miss_type_mach_latency_hist_seqr::mean    53.238095                       (Unspecified)
system.caches.RequestTypeMachineType.Locked_RMW_Read.Directory.miss_type_mach_latency_hist_seqr::gmean    49.686139                       (Unspecified)
system.caches.RequestTypeMachineType.Locked_RMW_Read.Directory.miss_type_mach_latency_hist_seqr::stdev    18.243354                       (Unspecified)
system.caches.RequestTypeMachineType.Locked_RMW_Read.Directory.miss_type_mach_latency_hist_seqr |           0      0.00%      0.00% |           6     14.29%     14.29% |           4      9.52%     23.81% |          20     47.62%     71.43% |           6     14.29%     85.71% |           6     14.29%    100.00% |           0      0.00%    100.00% |           0      0.00%    100.00% |           0      0.00%    100.00% |           0      0.00%    100.00% (Unspecified)
system.caches.RequestTypeMachineType.Locked_RMW_Read.Directory.miss_type_mach_latency_hist_seqr::total           42                       (Unspecified)
system.caches.controllers0.fullyBusyCycles        64510                       # cycles for which number of transistions == max transitions (Unspecified)
system.caches.controllers0.cacheMemory.m_demand_hits            0                       # Number of cache demand hits (Unspecified)
system.caches.controllers0.cacheMemory.m_demand_misses            0                       # Number of cache demand misses (Unspecified)
system.caches.controllers0.cacheMemory.m_demand_accesses            0                       # Number of cache demand accesses (Unspecified)
system.caches.controllers0.forwardFromDir.m_buf_msgs     0.000085                       # Average number of messages in buffer (Unspecified)
system.caches.controllers0.forwardFromDir.m_stall_time  4998.958145                       # Average number of cycles messages are stalled in this MB (Unspecified)
system.caches.controllers0.mandatoryQueue.m_buf_msgs     0.024286                       # Average number of messages in buffer (Unspecified)
system.caches.controllers0.mandatoryQueue.m_stall_time  1052.485271                       # Average number of cycles messages are stalled in this MB (Unspecified)
system.caches.controllers0.power_state.pwrStateResidencyTicks::UNDEFINED  76634433000                       # Cumulative time (in ticks) in various power states (Tick)
system.caches.controllers0.requestToDir.m_buf_msgs     0.000174                       # Average number of messages in buffer (Unspecified)
system.caches.controllers0.requestToDir.m_stall_time   999.999974                       # Average number of cycles messages are stalled in this MB (Unspecified)
system.caches.controllers0.responseFromDirOrSibling.m_buf_msgs     0.000090                       # Average number of messages in buffer (Unspecified)
system.caches.controllers0.responseFromDirOrSibling.m_stall_time  4999.995237                       # Average number of cycles messages are stalled in this MB (Unspecified)
system.caches.controllers0.responseToDirOrSibling.m_buf_msgs     0.000001                       # Average number of messages in buffer (Unspecified)
system.caches.controllers0.responseToDirOrSibling.m_stall_time   947.448492                       # Average number of cycles messages are stalled in this MB (Unspecified)
system.caches.controllers1.fullyBusyCycles        47560                       # cycles for which number of transistions == max transitions (Unspecified)
system.caches.controllers1.cacheMemory.m_demand_hits            0                       # Number of cache demand hits (Unspecified)
system.caches.controllers1.cacheMemory.m_demand_misses            0                       # Number of cache demand misses (Unspecified)
system.caches.controllers1.cacheMemory.m_demand_accesses            0                       # Number of cache demand accesses (Unspecified)
system.caches.controllers1.forwardFromDir.m_buf_msgs     0.000062                       # Average number of messages in buffer (Unspecified)
system.caches.controllers1.forwardFromDir.m_stall_time  4736.676136                       # Average number of cycles messages are stalled in this MB (Unspecified)
system.caches.controllers1.mandatoryQueue.m_buf_msgs     0.471835                       # Average number of messages in buffer (Unspecified)
system.caches.controllers1.mandatoryQueue.m_stall_time   986.162969                       # Average number of cycles messages are stalled in this MB (Unspecified)
system.caches.controllers1.power_state.pwrStateResidencyTicks::UNDEFINED  76634433000                       # Cumulative time (in ticks) in various power states (Tick)
system.caches.controllers1.requestToDir.m_buf_msgs     0.000129                       # Average number of messages in buffer (Unspecified)
system.caches.controllers1.requestToDir.m_stall_time   947.449419                       # Average number of cycles messages are stalled in this MB (Unspecified)
system.caches.controllers1.responseFromDirOrSibling.m_buf_msgs     0.000067                       # Average number of messages in buffer (Unspecified)
system.caches.controllers1.responseFromDirOrSibling.m_stall_time  4737.243831                       # Average number of cycles messages are stalled in this MB (Unspecified)
system.caches.controllers1.responseToDirOrSibling.m_buf_msgs     0.000000                       # Average number of messages in buffer (Unspecified)
system.caches.controllers1.responseToDirOrSibling.m_stall_time   947.282901                       # Average number of cycles messages are stalled in this MB (Unspecified)
system.caches.controllers2.fullyBusyCycles        27390                       # cycles for which number of transistions == max transitions (Unspecified)
system.caches.controllers2.cacheMemory.m_demand_hits            0                       # Number of cache demand hits (Unspecified)
system.caches.controllers2.cacheMemory.m_demand_misses            0                       # Number of cache demand misses (Unspecified)
system.caches.controllers2.cacheMemory.m_demand_accesses            0                       # Number of cache demand accesses (Unspecified)
system.caches.controllers2.forwardFromDir.m_buf_msgs     0.000036                       # Average number of messages in buffer (Unspecified)
system.caches.controllers2.forwardFromDir.m_stall_time  4736.149545                       # Average number of cycles messages are stalled in this MB (Unspecified)
system.caches.controllers2.mandatoryQueue.m_buf_msgs     0.150416                       # Average number of messages in buffer (Unspecified)
system.caches.controllers2.mandatoryQueue.m_stall_time   967.196247                       # Average number of cycles messages are stalled in this MB (Unspecified)
system.caches.controllers2.power_state.pwrStateResidencyTicks::UNDEFINED  76634433000                       # Cumulative time (in ticks) in various power states (Tick)
system.caches.controllers2.requestToDir.m_buf_msgs     0.000076                       # Average number of messages in buffer (Unspecified)
system.caches.controllers2.requestToDir.m_stall_time   947.290300                       # Average number of cycles messages are stalled in this MB (Unspecified)
system.caches.controllers2.responseFromDirOrSibling.m_buf_msgs     0.000040                       # Average number of messages in buffer (Unspecified)
system.caches.controllers2.responseFromDirOrSibling.m_stall_time  4736.448236                       # Average number of cycles messages are stalled in this MB (Unspecified)
system.caches.controllers2.responseToDirOrSibling.m_buf_msgs     0.000000                       # Average number of messages in buffer (Unspecified)
system.caches.controllers2.responseToDirOrSibling.m_stall_time   947.229896                       # Average number of cycles messages are stalled in this MB (Unspecified)
system.caches.controllers3.cacheMemory.m_demand_hits            0                       # Number of cache demand hits (Unspecified)
system.caches.controllers3.cacheMemory.m_demand_misses            0                       # Number of cache demand misses (Unspecified)
system.caches.controllers3.cacheMemory.m_demand_accesses            0                       # Number of cache demand accesses (Unspecified)
system.caches.controllers3.power_state.pwrStateResidencyTicks::UNDEFINED  76634433000                       # Cumulative time (in ticks) in various power states (Tick)
system.caches.controllers4.fullyBusyCycles         1054                       # cycles for which number of transistions == max transitions (Unspecified)
system.caches.controllers4.forwardToCache.m_buf_msgs     0.000187                       # Average number of messages in buffer (Unspecified)
system.caches.controllers4.forwardToCache.m_stall_time   999.973067                       # Average number of cycles messages are stalled in this MB (Unspecified)
system.caches.controllers4.power_state.pwrStateResidencyTicks::UNDEFINED  76634433000                       # Cumulative time (in ticks) in various power states (Tick)
system.caches.controllers4.requestFromCache.m_buf_msgs     0.000393                       # Average number of messages in buffer (Unspecified)
system.caches.controllers4.requestFromCache.m_stall_time  5010.593489                       # Average number of cycles messages are stalled in this MB (Unspecified)
system.caches.controllers4.requestToMemory.m_buf_msgs     0.000220                       # Average number of messages in buffer (Unspecified)
system.caches.controllers4.requestToMemory.m_stall_time  1000.014954                       # Average number of cycles messages are stalled in this MB (Unspecified)
system.caches.controllers4.responseFromCache.m_buf_msgs     0.000000                       # Average number of messages in buffer (Unspecified)
system.caches.controllers4.responseFromCache.m_stall_time  4737.242200                       # Average number of cycles messages are stalled in this MB (Unspecified)
system.caches.controllers4.responseFromMemory.m_buf_msgs     0.000284                       # Average number of messages in buffer (Unspecified)
system.caches.controllers4.responseFromMemory.m_stall_time   999.999113                       # Average number of cycles messages are stalled in this MB (Unspecified)
system.caches.controllers4.responseToCache.m_buf_msgs     0.000196                       # Average number of messages in buffer (Unspecified)
system.caches.controllers4.responseToCache.m_stall_time   999.999100                       # Average number of cycles messages are stalled in this MB (Unspecified)
system.caches.network.msg_count.Control         82646                       (Unspecified)
system.caches.network.msg_byte.Control         661168                       (Unspecified)
system.caches.network.msg_count.Data            33832                       (Unspecified)
system.caches.network.msg_byte.Data           2435904                       (Unspecified)
system.caches.network.int_link_buffers11.m_buf_msgs     0.000000                       # Average number of messages in buffer (Unspecified)
system.caches.network.int_link_buffers11.m_stall_time  2842.345398                       # Average number of cycles messages are stalled in this MB (Unspecified)
system.caches.network.int_link_buffers14.m_buf_msgs     0.000000                       # Average number of messages in buffer (Unspecified)
system.caches.network.int_link_buffers14.m_stall_time  2841.848624                       # Average number of cycles messages are stalled in this MB (Unspecified)
system.caches.network.int_link_buffers17.m_buf_msgs     0.000000                       # Average number of messages in buffer (Unspecified)
system.caches.network.int_link_buffers17.m_stall_time  2841.847333                       # Average number of cycles messages are stalled in this MB (Unspecified)
system.caches.network.int_link_buffers2.m_buf_msgs     0.000000                       # Average number of messages in buffer (Unspecified)
system.caches.network.int_link_buffers2.m_stall_time  2842.345398                       # Average number of cycles messages are stalled in this MB (Unspecified)
system.caches.network.int_link_buffers21.m_buf_msgs     0.000129                       # Average number of messages in buffer (Unspecified)
system.caches.network.int_link_buffers21.m_stall_time  2842.348178                       # Average number of cycles messages are stalled in this MB (Unspecified)
system.caches.network.int_link_buffers23.m_buf_msgs     0.000000                       # Average number of messages in buffer (Unspecified)
system.caches.network.int_link_buffers23.m_stall_time  2841.848624                       # Average number of cycles messages are stalled in this MB (Unspecified)
system.caches.network.int_link_buffers26.m_buf_msgs     0.000000                       # Average number of messages in buffer (Unspecified)
system.caches.network.int_link_buffers26.m_stall_time     1.074661                       # Average number of cycles messages are stalled in this MB (Unspecified)
system.caches.network.int_link_buffers29.m_buf_msgs     0.000000                       # Average number of messages in buffer (Unspecified)
system.caches.network.int_link_buffers29.m_stall_time  2841.689610                       # Average number of cycles messages are stalled in this MB (Unspecified)
system.caches.network.int_link_buffers33.m_buf_msgs     0.000076                       # Average number of messages in buffer (Unspecified)
system.caches.network.int_link_buffers33.m_stall_time  2841.870821                       # Average number of cycles messages are stalled in this MB (Unspecified)
system.caches.network.int_link_buffers35.m_buf_msgs     0.000000                       # Average number of messages in buffer (Unspecified)
system.caches.network.int_link_buffers35.m_stall_time    16.608774                       # Average number of cycles messages are stalled in this MB (Unspecified)
system.caches.network.int_link_buffers49.m_buf_msgs     0.000085                       # Average number of messages in buffer (Unspecified)
system.caches.network.int_link_buffers49.m_stall_time  2999.375007                       # Average number of cycles messages are stalled in this MB (Unspecified)
system.caches.network.int_link_buffers5.m_buf_msgs     0.000000                       # Average number of messages in buffer (Unspecified)
system.caches.network.int_link_buffers5.m_stall_time  2841.868041                       # Average number of cycles messages are stalled in this MB (Unspecified)
system.caches.network.int_link_buffers50.m_buf_msgs     0.000090                       # Average number of messages in buffer (Unspecified)
system.caches.network.int_link_buffers50.m_stall_time  2999.997221                       # Average number of cycles messages are stalled in this MB (Unspecified)
system.caches.network.int_link_buffers52.m_buf_msgs     0.000062                       # Average number of messages in buffer (Unspecified)
system.caches.network.int_link_buffers52.m_stall_time  2842.005760                       # Average number of cycles messages are stalled in this MB (Unspecified)
system.caches.network.int_link_buffers53.m_buf_msgs     0.000067                       # Average number of messages in buffer (Unspecified)
system.caches.network.int_link_buffers53.m_stall_time  2842.346377                       # Average number of cycles messages are stalled in this MB (Unspecified)
system.caches.network.int_link_buffers55.m_buf_msgs     0.000036                       # Average number of messages in buffer (Unspecified)
system.caches.network.int_link_buffers55.m_stall_time  2841.689805                       # Average number of cycles messages are stalled in this MB (Unspecified)
system.caches.network.int_link_buffers56.m_buf_msgs     0.000040                       # Average number of messages in buffer (Unspecified)
system.caches.network.int_link_buffers56.m_stall_time  2841.869020                       # Average number of cycles messages are stalled in this MB (Unspecified)
system.caches.network.int_link_buffers9.m_buf_msgs     0.000174                       # Average number of messages in buffer (Unspecified)
system.caches.network.int_link_buffers9.m_stall_time  2999.999843                       # Average number of cycles messages are stalled in this MB (Unspecified)
system.caches.network.power_state.pwrStateResidencyTicks::UNDEFINED  76634433000                       # Cumulative time (in ticks) in various power states (Tick)
system.caches.network.routers0.percent_links_utilized     0.011770                       (Unspecified)
system.caches.network.routers0.msg_count.Control::0        12342                       (Unspecified)
system.caches.network.routers0.msg_count.Control::1         6492                       (Unspecified)
system.caches.network.routers0.msg_count.Control::2           27                       (Unspecified)
system.caches.network.routers0.msg_bytes.Control::0        98736                       (Unspecified)
system.caches.network.routers0.msg_bytes.Control::1        51936                       (Unspecified)
system.caches.network.routers0.msg_bytes.Control::2          216                       (Unspecified)
system.caches.network.routers0.msg_count.Data::0         1000                       (Unspecified)
system.caches.network.routers0.msg_count.Data::2         6926                       (Unspecified)
system.caches.network.routers0.msg_bytes.Data::0        72000                       (Unspecified)
system.caches.network.routers0.msg_bytes.Data::2       498672                       (Unspecified)
system.caches.network.routers0.port_buffers1.m_buf_msgs     0.000085                       # Average number of messages in buffer (Unspecified)
system.caches.network.routers0.port_buffers1.m_stall_time  3999.166589                       # Average number of cycles messages are stalled in this MB (Unspecified)
system.caches.network.routers0.port_buffers12.m_buf_msgs     0.000174                       # Average number of messages in buffer (Unspecified)
system.caches.network.routers0.port_buffers12.m_stall_time  1999.999922                       # Average number of cycles messages are stalled in this MB (Unspecified)
system.caches.network.routers0.port_buffers14.m_buf_msgs     0.000000                       # Average number of messages in buffer (Unspecified)
system.caches.network.routers0.port_buffers14.m_stall_time  1894.896958                       # Average number of cycles messages are stalled in this MB (Unspecified)
system.caches.network.routers0.port_buffers2.m_buf_msgs     0.000090                       # Average number of messages in buffer (Unspecified)
system.caches.network.routers0.port_buffers2.m_stall_time  3999.996242                       # Average number of cycles messages are stalled in this MB (Unspecified)
system.caches.network.routers0.port_buffers5.m_buf_msgs     0.000000                       # Average number of messages in buffer (Unspecified)
system.caches.network.routers0.port_buffers5.m_stall_time  1894.896958                       # Average number of cycles messages are stalled in this MB (Unspecified)
system.caches.network.routers0.port_buffers8.m_buf_msgs     0.000000                       # Average number of messages in buffer (Unspecified)
system.caches.network.routers0.port_buffers8.m_stall_time  1894.578720                       # Average number of cycles messages are stalled in this MB (Unspecified)
system.caches.network.routers0.power_state.pwrStateResidencyTicks::UNDEFINED  76634433000                       # Cumulative time (in ticks) in various power states (Tick)
system.caches.network.routers0.throttle00.link_utilization     0.044704                       (Unspecified)
system.caches.network.routers0.throttle00.msg_count.Control::1         6492                       (Unspecified)
system.caches.network.routers0.throttle00.msg_count.Control::2            7                       (Unspecified)
system.caches.network.routers0.throttle00.msg_bytes.Control::1        51936                       (Unspecified)
system.caches.network.routers0.throttle00.msg_bytes.Control::2           56                       (Unspecified)
system.caches.network.routers0.throttle00.msg_count.Data::2         6891                       (Unspecified)
system.caches.network.routers0.throttle00.msg_bytes.Data::2       496152                       (Unspecified)
system.caches.network.routers0.throttle01.link_utilization     0.000068                       (Unspecified)
system.caches.network.routers0.throttle01.msg_count.Control::2           14                       (Unspecified)
system.caches.network.routers0.throttle01.msg_bytes.Control::2          112                       (Unspecified)
system.caches.network.routers0.throttle01.msg_count.Data::2           10                       (Unspecified)
system.caches.network.routers0.throttle01.msg_bytes.Data::2          720                       (Unspecified)
system.caches.network.routers0.throttle02.link_utilization     0.000069                       (Unspecified)
system.caches.network.routers0.throttle02.msg_count.Control::2            6                       (Unspecified)
system.caches.network.routers0.throttle02.msg_bytes.Control::2           48                       (Unspecified)
system.caches.network.routers0.throttle02.msg_count.Data::2           11                       (Unspecified)
system.caches.network.routers0.throttle02.msg_bytes.Data::2          792                       (Unspecified)
system.caches.network.routers0.throttle03.link_utilization            0                       (Unspecified)
system.caches.network.routers0.throttle04.link_utilization     0.014007                       (Unspecified)
system.caches.network.routers0.throttle04.msg_count.Control::0        12342                       (Unspecified)
system.caches.network.routers0.throttle04.msg_bytes.Control::0        98736                       (Unspecified)
system.caches.network.routers0.throttle04.msg_count.Data::0         1000                       (Unspecified)
system.caches.network.routers0.throttle04.msg_count.Data::2           14                       (Unspecified)
system.caches.network.routers0.throttle04.msg_bytes.Data::0        72000                       (Unspecified)
system.caches.network.routers0.throttle04.msg_bytes.Data::2         1008                       (Unspecified)
system.caches.network.routers1.percent_links_utilized     0.008503                       (Unspecified)
system.caches.network.routers1.msg_count.Control::0         9416                       (Unspecified)
system.caches.network.routers1.msg_count.Control::1         4782                       (Unspecified)
system.caches.network.routers1.msg_count.Control::2           34                       (Unspecified)
[...]
system.mem_ctrl.rdPerTurnAround::samples          110                       # Reads before turning the bus around for writes (Count)
system.mem_ctrl.rdPerTurnAround::mean      127.136364                       # Reads before turning the bus around for writes (Count)
system.mem_ctrl.rdPerTurnAround::gmean      83.105138                       # Reads before turning the bus around for writes (Count)
system.mem_ctrl.rdPerTurnAround::stdev     225.043950                       # Reads before turning the bus around for writes (Count)
system.mem_ctrl.rdPerTurnAround::0-127             84     76.36%     76.36% # Reads before turning the bus around for writes (Count)
system.mem_ctrl.rdPerTurnAround::128-255           16     14.55%     90.91% # Reads before turning the bus around for writes (Count)
system.mem_ctrl.rdPerTurnAround::256-383            6      5.45%     96.36% # Reads before turning the bus around for writes (Count)
system.mem_ctrl.rdPerTurnAround::384-511            2      1.82%     98.18% # Reads before turning the bus around for writes (Count)
system.mem_ctrl.rdPerTurnAround::896-1023            1      0.91%     99.09% # Reads before turning the bus around for writes (Count)
system.mem_ctrl.rdPerTurnAround::2048-2175            1      0.91%    100.00% # Reads before turning the bus around for writes (Count)
system.mem_ctrl.rdPerTurnAround::total            110                       # Reads before turning the bus around for writes (Count)
system.mem_ctrl.wrPerTurnAround::samples          110                       # Writes before turning the bus around for reads (Count)
system.mem_ctrl.wrPerTurnAround::mean       16.018182                       # Writes before turning the bus around for reads (Count)
system.mem_ctrl.wrPerTurnAround::gmean      16.017141                       # Writes before turning the bus around for reads (Count)
system.mem_ctrl.wrPerTurnAround::stdev       0.190693                       # Writes before turning the bus around for reads (Count)
system.mem_ctrl.wrPerTurnAround::16               109     99.09%     99.09% # Writes before turning the bus around for reads (Count)
system.mem_ctrl.wrPerTurnAround::18                 1      0.91%    100.00% # Writes before turning the bus around for reads (Count)
system.mem_ctrl.wrPerTurnAround::total            110                       # Writes before turning the bus around for reads (Count)
system.mem_ctrl.bytesReadWrQ                    55744                       # Total number of bytes read from write queue (Byte)
system.mem_ctrl.bytesReadSys                   963392                       # Total read bytes from the system interface side (Byte)
system.mem_ctrl.bytesWrittenSys                116480                       # Total written bytes from the system interface side (Byte)
system.mem_ctrl.avgRdBWSys               12571268.06170798                       # Average system read bandwidth in Byte/s ((Byte/Second))
system.mem_ctrl.avgWrBWSys               1519943.39150392                       # Average system write bandwidth in Byte/s ((Byte/Second))
system.mem_ctrl.totGap                    76634374000                       # Total gap between requests (Tick)
system.mem_ctrl.avgGap                     4541834.53                       # Average gap between requests ((Tick/Count))
system.mem_ctrl.requestorReadBytes::caches.controllers4       907648                       # Per-requestor bytes read from memory (Byte)
system.mem_ctrl.requestorWriteBytes::caches.controllers4       112768                       # Per-requestor bytes write to memory (Byte)
system.mem_ctrl.requestorReadRate::caches.controllers4 11843866.581488246098                       # Per-requestor bytes read from memory rate ((Byte/Second))
system.mem_ctrl.requestorWriteRate::caches.controllers4 1471505.635071378434                       # Per-requestor bytes write to memory rate ((Byte/Second))
system.mem_ctrl.requestorReadAccesses::caches.controllers4        15053                       # Per-requestor read serviced memory accesses (Count)
system.mem_ctrl.requestorWriteAccesses::caches.controllers4         1820                       # Per-requestor write serviced memory accesses (Count)
system.mem_ctrl.requestorReadTotalLat::caches.controllers4    406107750                       # Per-requestor read total memory access latency (Tick)
system.mem_ctrl.requestorWriteTotalLat::caches.controllers4 1810948244750                       # Per-requestor write total memory access latency (Tick)
system.mem_ctrl.requestorReadAvgLat::caches.controllers4     26978.53                       # Per-requestor read average memory access latency ((Tick/Count))
system.mem_ctrl.requestorWriteAvgLat::caches.controllers4 995026508.10                       # Per-requestor write average memory access latency ((Tick/Count))
system.mem_ctrl.dram.bytesRead::caches.controllers4       963392                       # Number of bytes read from this memory (Byte)
system.mem_ctrl.dram.bytesRead::total          963392                       # Number of bytes read from this memory (Byte)
system.mem_ctrl.dram.bytesWritten::caches.controllers4       116480                       # Number of bytes written to this memory (Byte)
system.mem_ctrl.dram.bytesWritten::total       116480                       # Number of bytes written to this memory (Byte)
system.mem_ctrl.dram.numReads::caches.controllers4        15053                       # Number of read requests responded to by this memory (Count)
system.mem_ctrl.dram.numReads::total            15053                       # Number of read requests responded to by this memory (Count)
system.mem_ctrl.dram.numWrites::caches.controllers4         1820                       # Number of write requests responded to by this memory (Count)
system.mem_ctrl.dram.numWrites::total            1820                       # Number of write requests responded to by this memory (Count)
system.mem_ctrl.dram.bwRead::caches.controllers4     12571268                       # Total read bandwidth from this memory ((Byte/Second))
system.mem_ctrl.dram.bwRead::total           12571268                       # Total read bandwidth from this memory ((Byte/Second))
system.mem_ctrl.dram.bwWrite::caches.controllers4      1519943                       # Write bandwidth from this memory ((Byte/Second))
system.mem_ctrl.dram.bwWrite::total           1519943                       # Write bandwidth from this memory ((Byte/Second))
system.mem_ctrl.dram.bwTotal::caches.controllers4     14091211                       # Total bandwidth to/from this memory ((Byte/Second))
system.mem_ctrl.dram.bwTotal::total          14091211                       # Total bandwidth to/from this memory ((Byte/Second))
system.mem_ctrl.dram.readBursts                 14182                       # Number of DRAM read bursts (Count)
system.mem_ctrl.dram.writeBursts                 1762                       # Number of DRAM write bursts (Count)
system.mem_ctrl.dram.perBankRdBursts::0           869                       # Per bank write bursts (Count)
system.mem_ctrl.dram.perBankRdBursts::1           677                       # Per bank write bursts (Count)
system.mem_ctrl.dram.perBankRdBursts::2           607                       # Per bank write bursts (Count)
system.mem_ctrl.dram.perBankRdBursts::3           822                       # Per bank write bursts (Count)
system.mem_ctrl.dram.perBankRdBursts::4           605                       # Per bank write bursts (Count)
system.mem_ctrl.dram.perBankRdBursts::5           540                       # Per bank write bursts (Count)
system.mem_ctrl.dram.perBankRdBursts::6           457                       # Per bank write bursts (Count)
system.mem_ctrl.dram.perBankRdBursts::7          1133                       # Per bank write bursts (Count)
system.mem_ctrl.dram.perBankRdBursts::8          1257                       # Per bank write bursts (Count)
system.mem_ctrl.dram.perBankRdBursts::9          1865                       # Per bank write bursts (Count)
system.mem_ctrl.dram.perBankRdBursts::10         1455                       # Per bank write bursts (Count)
system.mem_ctrl.dram.perBankRdBursts::11          530                       # Per bank write bursts (Count)
system.mem_ctrl.dram.perBankRdBursts::12          407                       # Per bank write bursts (Count)
system.mem_ctrl.dram.perBankRdBursts::13          447                       # Per bank write bursts (Count)
system.mem_ctrl.dram.perBankRdBursts::14         1463                       # Per bank write bursts (Count)
system.mem_ctrl.dram.perBankRdBursts::15         1048                       # Per bank write bursts (Count)
system.mem_ctrl.dram.perBankWrBursts::0            11                       # Per bank write bursts (Count)
system.mem_ctrl.dram.perBankWrBursts::1             5                       # Per bank write bursts (Count)
system.mem_ctrl.dram.perBankWrBursts::2            73                       # Per bank write bursts (Count)
system.mem_ctrl.dram.perBankWrBursts::3           242                       # Per bank write bursts (Count)
system.mem_ctrl.dram.perBankWrBursts::4            24                       # Per bank write bursts (Count)
system.mem_ctrl.dram.perBankWrBursts::5             9                       # Per bank write bursts (Count)
system.mem_ctrl.dram.perBankWrBursts::6            51                       # Per bank write bursts (Count)
system.mem_ctrl.dram.perBankWrBursts::7           273                       # Per bank write bursts (Count)
system.mem_ctrl.dram.perBankWrBursts::8           306                       # Per bank write bursts (Count)
system.mem_ctrl.dram.perBankWrBursts::9            91                       # Per bank write bursts (Count)
system.mem_ctrl.dram.perBankWrBursts::10           53                       # Per bank write bursts (Count)
system.mem_ctrl.dram.perBankWrBursts::11           73                       # Per bank write bursts (Count)
system.mem_ctrl.dram.perBankWrBursts::12           59                       # Per bank write bursts (Count)
system.mem_ctrl.dram.perBankWrBursts::13          166                       # Per bank write bursts (Count)
system.mem_ctrl.dram.perBankWrBursts::14          185                       # Per bank write bursts (Count)
system.mem_ctrl.dram.perBankWrBursts::15          141                       # Per bank write bursts (Count)
system.mem_ctrl.dram.totQLat                140195250                       # Total ticks spent queuing (Tick)
system.mem_ctrl.dram.totBusLat               70910000                       # Total ticks spent in databus transfers (Tick)
system.mem_ctrl.dram.totMemAccLat           406107750                       # Total ticks spent from burst creation until serviced by the DRAM (Tick)
system.mem_ctrl.dram.avgQLat                  9885.44                       # Average queueing delay per DRAM burst ((Tick/Count))
system.mem_ctrl.dram.avgBusLat                5000.00                       # Average bus latency per DRAM burst ((Tick/Count))
system.mem_ctrl.dram.avgMemAccLat            28635.44                       # Average memory access latency per DRAM burst ((Tick/Count))
system.mem_ctrl.dram.readRowHits                 9810                       # Number of row buffer hits during reads (Count)
system.mem_ctrl.dram.writeRowHits                1507                       # Number of row buffer hits during writes (Count)
system.mem_ctrl.dram.readRowHitRate             69.17                       # Row buffer hit rate for reads (Ratio)
system.mem_ctrl.dram.writeRowHitRate            85.53                       # Row buffer hit rate for writes (Ratio)
system.mem_ctrl.dram.bytesPerActivate::samples         4621                       # Bytes accessed per row activation (Byte)
system.mem_ctrl.dram.bytesPerActivate::mean   220.544471                       # Bytes accessed per row activation (Byte)
system.mem_ctrl.dram.bytesPerActivate::gmean   147.676385                       # Bytes accessed per row activation (Byte)
system.mem_ctrl.dram.bytesPerActivate::stdev   229.081323                       # Bytes accessed per row activation (Byte)
system.mem_ctrl.dram.bytesPerActivate::0-127         1893     40.97%     40.97% # Bytes accessed per row activation (Byte)
system.mem_ctrl.dram.bytesPerActivate::128-255         1319     28.54%     69.51% # Bytes accessed per row activation (Byte)
system.mem_ctrl.dram.bytesPerActivate::256-383          500     10.82%     80.33% # Bytes accessed per row activation (Byte)
system.mem_ctrl.dram.bytesPerActivate::384-511          418      9.05%     89.37% # Bytes accessed per row activation (Byte)
system.mem_ctrl.dram.bytesPerActivate::512-639          142      3.07%     92.45% # Bytes accessed per row activation (Byte)
system.mem_ctrl.dram.bytesPerActivate::640-767           90      1.95%     94.40% # Bytes accessed per row activation (Byte)
system.mem_ctrl.dram.bytesPerActivate::768-895           68      1.47%     95.87% # Bytes accessed per row activation (Byte)
system.mem_ctrl.dram.bytesPerActivate::896-1023           42      0.91%     96.78% # Bytes accessed per row activation (Byte)
system.mem_ctrl.dram.bytesPerActivate::1024-1151          149      3.22%    100.00% # Bytes accessed per row activation (Byte)
system.mem_ctrl.dram.bytesPerActivate::total         4621                       # Bytes accessed per row activation (Byte)
system.mem_ctrl.dram.bytesRead                 907648                       # Total number of bytes read from DRAM (Byte)
system.mem_ctrl.dram.bytesWritten              112768                       # Total number of bytes written to DRAM (Byte)
system.mem_ctrl.dram.avgRdBW                11.843867                       # Average DRAM read bandwidth in MiBytes/s ((Byte/Second))
system.mem_ctrl.dram.avgWrBW                 1.471506                       # Average DRAM write bandwidth in MiBytes/s ((Byte/Second))
system.mem_ctrl.dram.peakBW                  12800.00                       # Theoretical peak bandwidth in MiByte/s ((Byte/Second))
system.mem_ctrl.dram.busUtil                     0.10                       # Data bus utilization in percentage (Ratio)
system.mem_ctrl.dram.busUtilRead                 0.09                       # Data bus utilization in percentage for reads (Ratio)
system.mem_ctrl.dram.busUtilWrite                0.01                       # Data bus utilization in percentage for writes (Ratio)
system.mem_ctrl.dram.pageHitRate                70.98                       # Row buffer hit rate, read and write combined (Ratio)
system.mem_ctrl.dram.power_state.pwrStateResidencyTicks::UNDEFINED  76634433000                       # Cumulative time (in ticks) in various power states (Tick)
system.mem_ctrl.dram.rank0.actEnergy         15208200                       # Energy for activate commands per rank (pJ) (Joule)
system.mem_ctrl.dram.rank0.preEnergy          8075760                       # Energy for precharge commands per rank (pJ) (Joule)
system.mem_ctrl.dram.rank0.readEnergy        40769400                       # Energy for read commands per rank (pJ) (Joule)
system.mem_ctrl.dram.rank0.writeEnergy        3591360                       # Energy for write commands per rank (pJ) (Joule)
system.mem_ctrl.dram.rank0.refreshEnergy 6049286880.000001                       # Energy for refresh commands per rank (pJ) (Joule)
system.mem_ctrl.dram.rank0.actBackEnergy   2140597950                       # Energy for active background per rank (pJ) (Joule)
system.mem_ctrl.dram.rank0.preBackEnergy  27625013760                       # Energy for precharge background per rank (pJ) (Joule)
system.mem_ctrl.dram.rank0.actPowerDownEnergy            0                       # Energy for active power-down per rank (pJ) (Joule)
system.mem_ctrl.dram.rank0.prePowerDownEnergy            0                       # Energy for precharge power-down per rank (pJ) (Joule)
system.mem_ctrl.dram.rank0.selfRefreshEnergy            0                       # Energy for self refresh per rank (pJ) (Joule)
system.mem_ctrl.dram.rank0.totalEnergy    35882543310                       # Total energy per rank (pJ) (Joule)
system.mem_ctrl.dram.rank0.averagePower    468.230036                       # Core power per rank (mW) (Watt)
system.mem_ctrl.dram.rank0.totalIdleTime            0                       # Total Idle time Per DRAM Rank (Tick)
system.mem_ctrl.dram.rank0.pwrStateTime::IDLE  71798633250                       # Time in different power states (Tick)
system.mem_ctrl.dram.rank0.pwrStateTime::REF   2558920000                       # Time in different power states (Tick)
system.mem_ctrl.dram.rank0.pwrStateTime::SREF            0                       # Time in different power states (Tick)
system.mem_ctrl.dram.rank0.pwrStateTime::PRE_PDN            0                       # Time in different power states (Tick)
system.mem_ctrl.dram.rank0.pwrStateTime::ACT   2276879750                       # Time in different power states (Tick)
system.mem_ctrl.dram.rank0.pwrStateTime::ACT_PDN            0                       # Time in different power states (Tick)
system.mem_ctrl.dram.rank1.actEnergy         17828580                       # Energy for activate commands per rank (pJ) (Joule)
system.mem_ctrl.dram.rank1.preEnergy          9460935                       # Energy for precharge commands per rank (pJ) (Joule)
system.mem_ctrl.dram.rank1.readEnergy        60490080                       # Energy for read commands per rank (pJ) (Joule)
system.mem_ctrl.dram.rank1.writeEnergy        5606280                       # Energy for write commands per rank (pJ) (Joule)
system.mem_ctrl.dram.rank1.refreshEnergy 6049286880.000001                       # Energy for refresh commands per rank (pJ) (Joule)
system.mem_ctrl.dram.rank1.actBackEnergy   2954142420                       # Energy for active background per rank (pJ) (Joule)
system.mem_ctrl.dram.rank1.preBackEnergy  26939923680                       # Energy for precharge background per rank (pJ) (Joule)
system.mem_ctrl.dram.rank1.actPowerDownEnergy            0                       # Energy for active power-down per rank (pJ) (Joule)
system.mem_ctrl.dram.rank1.prePowerDownEnergy            0                       # Energy for precharge power-down per rank (pJ) (Joule)
system.mem_ctrl.dram.rank1.selfRefreshEnergy            0                       # Energy for self refresh per rank (pJ) (Joule)
system.mem_ctrl.dram.rank1.totalEnergy    36036738855                       # Total energy per rank (pJ) (Joule)
system.mem_ctrl.dram.rank1.averagePower    470.242128                       # Core power per rank (mW) (Watt)
system.mem_ctrl.dram.rank1.totalIdleTime            0                       # Total Idle time Per DRAM Rank (Tick)
system.mem_ctrl.dram.rank1.pwrStateTime::IDLE  70010688750                       # Time in different power states (Tick)
system.mem_ctrl.dram.rank1.pwrStateTime::REF   2558920000                       # Time in different power states (Tick)
system.mem_ctrl.dram.rank1.pwrStateTime::SREF            0                       # Time in different power states (Tick)
system.mem_ctrl.dram.rank1.pwrStateTime::PRE_PDN            0                       # Time in different power states (Tick)
system.mem_ctrl.dram.rank1.pwrStateTime::ACT   4064824250                       # Time in different power states (Tick)
system.mem_ctrl.dram.rank1.pwrStateTime::ACT_PDN            0                       # Time in different power states (Tick)
system.mem_ctrl.power_state.pwrStateResidencyTicks::UNDEFINED  76634433000                       # Cumulative time (in ticks) in various power states (Tick)
system.workload.inst.arm                            0                       # number of arm instructions executed (Count)
system.workload.inst.quiesce                        0                       # number of quiesce instructions executed (Count)

---------- End Simulation Statistics   ----------
